*KEYWORD
*CONTROL_ALE
$===============================================================================
$ [10] EULERIAN & ALE CONTACTS CONSTRAINTS, ...
$===============================================================================
$$     DCT      NADV      METH      AFAC      BFAC      CFAC      DFAC
$#     dct      nadv      meth      afac      bfac      cfac      dfac      efac
         2         1         2 -1.000000       0.0       0.0       0.0       0.0
$    START       END     AAFAC     VFACT    PEQUIL       EBC   PRESFAC
$#   start       end     aafac     vfact    vlimit       ebc      pref
       0.0       0.0       0.0       0.0       0.0         01.0130e-04
*DATABASE_ABSTAT
  0.100000
*DATABASE_FSI
$===============================================================================
$     TOUT
  0.100000
$      ID&      SID&    STYPE&  stype=0=partset =1=part =2=segmentset
         1         1         1
         2         3         1
*DEFINE_VECTOR
         1       0.0       0.0  50.50000  21.21320  21.21320  50.50000
         2       0.0       0.0  50.50000  30.00000-1.000e-06  50.50000
         3       0.0       0.0  50.50000  21.21320 -21.21320  50.50000
         4       0.0       0.0  50.50000-1.000e-06 -30.00000  50.50000
         5       0.0       0.0  50.50000 -21.21320 -21.21320  50.50000
         6       0.0       0.0  50.50000 -30.000001.0000e-06  50.50000
         7       0.0       0.0  50.50000 -21.21320  21.21320  50.50000
         8       0.0       0.0  50.500001.0000e-06  30.00000  50.50000
*DEFINE_ALEBAG_BAG
$       ID      SID    SIDTYP     CVBAG    IBLOCK      VCOF      VSET      VTYP
       100      123         0       YES
$    NQUAD     CTYPE     PFAC      FRIC    FRCMIN   NORMTYP     ILEAK     PLEAK
                   4    -9010                                       2       0.0
$     NORM
         0
*DEFINE_ALEBAG_INFLATOR
$       ID     VTANK                          NGAS     NORIF     LCIDV       LCT
       100                                       1         8      2002      2001
$    LCIDM                         MWGAS                GASA      GASB      GASC
      2003                        0.0280              33.488           
$   NODEID     VECID     ORIFA
$#  nodeid     vecid  orifarea
    100019         1  13.50000
$#  nodeid     vecid  orifarea
    100020         2  13.50000
$#  nodeid     vecid  orifarea
    100021         3  13.50000
$#  nodeid     vecid  orifarea
    100022         4  13.50000
$#  nodeid     vecid  orifarea
    100023         5  13.50000
$#  nodeid     vecid  orifarea
    100024         6  13.50000
$#  nodeid     vecid  orifarea
    100017         7  13.50000
$#  nodeid     vecid  orifarea
    100018         8  13.50000
*AIRBAG_ADVANCED_ALE
$     BAG1      BAG2
      100
$    HOLE1     HOLE2
                                                                                
$     INF1      INF2
       100
$     PAIR        NY        NZ                ARSN    IDCENT     ExSID    ExType
     50000
$     ATMT      ATMP                  GC        CC      TANK       MWD      SPSF
      295.  1.013e-4               8.314        1.      TANK                   
$   SwTime              HrGlas      NAir
                                       1
$#6 AIR                            MWAir     INITM      AirA      AirB      AirC
                                 0.02885      1.00    29.050   
*SET_PART_LIST
       123       0.0       0.0       0.0       0.0
         1         3
*DEFINE_CURVE
$     LCID      SIDR       SFA       SFO      OFFA      OFFO    DATTYP
      9010         0       0.0       0.0       0.0       0.0
          0.00000000           0.0000000
          1.00000000           5.0000e-4
*DEFINE_CURVE
$  null load curve                       
$     LCID      SIDR       SFA       SFO      OFFA      OFFO    DATTYP
      2000         0       0.0       0.0       0.0       0.0
          0.00000000           0.0000000
          1000.00000           0.0000000
*DEFINE_CURVE
$===============================================================================
$  temperature     load curve id = 2001
$  velocity        load curve id = 2002
$  massflowrate    load curve id = 2003
$     LCID      SIDR       SFA       SFO      OFFA      OFFO    DATTYP
      2001         0       0.0       0.0       0.0       0.0
                 0.0         800.0000000
          0.09844730         800.0000000
          0.19689500         800.0000000
          0.29534200         800.0000000
          0.39378899         800.0000000
          0.49223599         800.0000000
          0.59068400         800.0000000
          0.68913102         800.0000000
          0.78757799         800.0000000
          0.88602602         800.0000000
          0.99853700         800.0000000
          1.09697998         800.0000000
          1.19543004         800.0000000
          1.29387999         800.0000000
          1.39233005         800.0000000
          1.49076998         800.0000000
          1.58922005         800.0000000
          1.68766999         800.0000000
          1.78612006         800.0000000
$ ... 482 like lines cut
*DEFINE_CURVE
$     LCID      SIDR       SFA       SFO      OFFA      OFFO    DATTYP
      2002         0       0.0       0.0       0.0       0.0
                 0.0         200.0000000
         100.0000000         200.0000000
*DEFINE_CURVE
$     LCID      SIDR       SFA       SFO      OFFA      OFFO    DATTYP
      2003         0  1.0000002.1600e+04       0.0       0.0
$     2003         0  1.000000 1.0000000       0.0       0.0
$      .00000000E+00       .00000000E+00
                 0.0       1.1044000e-09
          0.09844730       1.0189815e-09
          0.19689500       2.0379629e-09
          0.29534200       3.0568983e-09
          0.39378899       4.0758796e-09
          0.49223599       5.0949076e-09
          0.59068400       6.1138890e-09
          0.68913102       7.1287038e-09
          0.78757799       8.1430560e-09
          0.88602602       9.1569445e-09
          0.99853700       1.0316204e-08
          1.09697998       1.1330555e-08
          1.19543004       1.2344907e-08
          1.29387999       1.3350000e-08
          1.39233005       1.4355092e-08
          1.49076998       1.5359722e-08
          1.58922005       1.6364814e-08
          1.68766999       1.7369445e-08
          1.78612006       1.8374537e-08
          1.89863002       1.9508796e-08
$ ... 481 like lines cut
*SET_PART_LIST
       510       0.0       0.0       0.0       0.0
         1         3
*ELEMENT_SOLID
 1000000   50000 1002863 1002864 1002859 1002860 1002598 1002599 1004281 1004282
 1000001   50000 1002864 1002855 1002856 1002859 1002599 1004283 1004284 1004281
 1000002   50000 1002848 1002849 1002864 1002863 1004285 1004286 1002599 1002598
 1000003   50000 1002849 1002850 1002855 1002864 1004286 1004287 1004283 1002599
 1000004   50000 1002860 1002861 1002865 1002863 1004282 1004288 1004289 1002598
 1000005   50000 1002863 1002865 1002847 1002848 1002598 1004289 1004290 1004285
 1000006   50000 1002840 1002866 1002862 1002839 1004291 1004292 1004293 1004294
 1000007   50000 1002866 1002865 1002861 1002862 1004292 1004289 1004288 1004293
 1000008   50000 1002841 1002846 1002866 1002840 1004295 1004296 1004292 1004291
 1000009   50000 1002846 1002847 1002865 1002866 1004296 1004290 1004289 1004292
 1000010   50000 1002867 1002869 1002823 1002824 1004297 1004298 1004299 1004300
 1000011   50000 1002869 1002858 1002822 1002823 1004298 1004301 1004302 1004299
 1000012   50000 1002868 1002870 1002869 1002867 1004303 1004304 1004298 1004297
 1000013   50000 1002870 1002857 1002858 1002869 1004304 1004305 1004301 1004298
 1000014   50000 1002860 1002859 1002870 1002868 1004282 1004281 1004304 1004303
 1000015   50000 1002859 1002856 1002857 1002870 1004281 1004284 1004305 1004304
 1000016   50000 1002837 1002871 1002826 1002827 1004306 1004307 1004308 1004309
 1000017   50000 1002871 1002872 1002825 1002826 1004307 1004310 1004311 1004308
 1000018   50000 1002872 1002867 1002824 1002825 1004310 1004297 1004300 1004311
 1000019   50000 1002839 1002862 1002873 1002838 1004294 1004293 1004312 1004313
$ ... 15370 like lines cut
*NODE
 1002598    142.95599365   -112.64880371    -16.83333397
 1002599    119.59200287   -112.64880371    -16.83333397
 1002764    329.86801147             0.0    -33.50000000
 1002765    306.50399780             0.0    -33.50000000
 1002766    283.14001465             0.0    -33.50000000
 1002767    259.77600098             0.0    -33.50000000
 1002768    236.41200256             0.0    -33.50000000
 1002769    213.04800415             0.0    -33.50000000
 1002770    189.68400574             0.0    -33.50000000
 1002771    166.32000732             0.0    -33.50000000
 1002772    142.95599365             0.0    -33.50000000
 1002773    119.59200287             0.0    -33.50000000
 1002774     96.22799683             0.0    -33.50000000
 1002775     72.86399841             0.0    -33.50000000
 1002776     49.50000000             0.0    -33.50000000
 1002777     33.00000000             0.0    -33.50000000
 1002778     16.00000000             0.0    -33.50000000
 1002779             0.0             0.0    -33.50000000
 1002780    -16.00000000             0.0    -33.50000000
 1002781    -33.00000000             0.0    -33.50000000
$ ... 17340 like lines cut
*PART
burner
$#     pid     secid       mid     eosid      hgid      grav    adpopt      tmid
    100000    100000    100000
*SECTION_SHELL
$#   secid    elform      shrf       nip     propt   qr/irid     icomp     setyp
    100000         2       0.0         2         0       0.0         0
$#      t1        t2        t3        t4      nloc     marea
  1.000000  1.000000  1.000000  1.000000         0       0.0
*MAT_RIGID
$#     mid        ro         e        pr         n    couple         m     alias
    1000007.8500e-06  2.000000  0.300000       0.0       0.0       0.0
$#     cmo      con1      con2
  1.000000         7         7
$#lco or a1       a2        a3        v1        v2        v3
       0.0       0.0       0.0       0.0       0.0       0.0
*ELEMENT_SHELL
  100000  100000  100025  100026  100017  100017
  100001  100000  100025  100026  100018  100018
  100002  100000  100025  100026  100019  100019
  100003  100000  100025  100026  100020  100020
  100004  100000  100025  100026  100021  100021
  100005  100000  100025  100026  100022  100022
  100006  100000  100025  100026  100023  100023
  100007  100000  100025  100026  100024  100024
  100008  100000  100009  100010  100017  100017
  100009  100000  100010  100008  100017  100017
  100010  100000  100008  100001  100017  100017
  100011  100000  100001  100009  100017  100017
  100012  100000  100010  100011  100018  100018
  100013  100000  100011  100007  100018  100018
  100014  100000  100007  100008  100018  100018
  100015  100000  100008  100010  100018  100018
  100016  100000  100011  100012  100019  100019
  100017  100000  100012  100006  100019  100019
  100018  100000  100006  100007  100019  100019
  100019  100000  100007  100011  100019  100019
$ ... 20 like lines cut
*NODE
  100001  -2.7716387e+01   1.1480503e+01   4.0500000e+01
  100002  -2.7716387e+01  -1.1480503e+01   4.0500000e+01
  100003  -1.1480503e+01  -2.7716387e+01   4.0500000e+01
  100004   1.1480503e+01  -2.7716387e+01   4.0500000e+01
  100005   2.7716387e+01  -1.1480503e+01   4.0500000e+01
  100006   2.7716387e+01   1.1480503e+01   4.0500000e+01
  100007   1.1480503e+01   2.7716387e+01   4.0500000e+01
  100008  -1.1480503e+01   2.7716387e+01   4.0500000e+01
  100009  -2.7716387e+01   1.1480503e+01   6.0500000e+01
  100010  -1.1480503e+01   2.7716387e+01   6.0500000e+01
  100011   1.1480503e+01   2.7716387e+01   6.0500000e+01
  100012   2.7716387e+01   1.1480503e+01   6.0500000e+01
  100013   2.7716387e+01  -1.1480503e+01   6.0500000e+01
  100014   1.1480503e+01  -2.7716387e+01   6.0500000e+01
  100015  -1.1480503e+01  -2.7716387e+01   6.0500000e+01
  100016  -2.7716387e+01  -1.1480503e+01   6.0500000e+01
  100017  -2.1213203e+01   2.1213203e+01   5.0500000e+01
  100018   6.4230915e-07   3.0000000e+01   5.0500000e+01
  100019   2.1213203e+01   2.1213203e+01   5.0500000e+01
  100020   3.0000000e+01  -6.4230954e-07   5.0500000e+01
$ ... 6 like lines cut
*END
