*KEYWORD
*CONTROL_STRUCTURED
*CONTROL_BULK_VISCOSITY
0.0001,0.0001
*CONTROL_TERMINATION
$   ENDTIM    ENDCYC     DTMIN    ENDENG    ENDMAS
 50.000000         0 0.0000000         0 0.0000000
*CONTROL_TIMESTEP
$   DTINIT    TSSFAC      ISDO    TSLIMT     DT2MS      LCTM     ERODE     MS1ST
 0.0001000 0.5000000         0 0.0000000 0.0000000         0         0         0
*DATABASE_BINARY_D3PLOT
 1.0000100                   0
*DATABASE_EXTENT_BINARY
         0         0         0         0         0         0         0         0
         0         0         0         0         0         0
*DATABASE_RWFORC
 0.1000000
*DATABASE_ABSTAT
 0.1000000
*DATABASE_GLSTAT
 0.1000000
*DATABASE_MATSUM
 0.1000000
*DATABASE_ABSTAT
  0.100000
*PART
tank    
$#     pid     secid       mid     eosid      hgid      grav    adpopt      tmid
         1         1         1
*PART
vent
$#     pid     secid       mid     eosid      hgid      grav    adpopt      tmid
         3         1         1
*SECTION_SHELL
$#   secid    elform      shrf       nip     propt   qr/irid     icomp     setyp
         1         2       0.0         2         0       0.0         0
$#      t1        t2        t3        t4      nloc     marea
  1.000000  1.000000  1.000000  1.000000         0       0.0
*MAT_RIGID
$#     mid        ro         e        pr         n    couple         m     alias
         17.8500e-06  2.000000  0.300000       0.0       0.0       0.0
$#     cmo      con1      con2
  1.000000         7         7
$#lco or a1       a2        a3        v1        v2        v3
       0.0       0.0       0.0       0.0       0.0       0.0
*CONSTRAINED_RIGID_BODIES
$#    pidm      pids
         1         3
*ELEMENT_SHELL
       1       1    1455    1456    1457    1457
       2       1    1725    1726    1727    1727
       3       1    1848    1849    1850    1850
       4       1    1383    1386    1387    1382
       5       1    1382    1387    1356    1357
       6       1    1386    1353    1354    1387
       7       1    1387    1354    1355    1356
       8       1    1384    1388    1386    1383
       9       1    1388    1352    1353    1386
      10       1    1348    1349    1389    1385
      11       1    1385    1389    1388    1384
      12       1    1349    1350    1351    1389
      13       1    1389    1351    1352    1388
      14       1    1379    1390    1392    1378
      15       1    1378    1392    1359    1360
      16       1    1390    1391    1393    1392
      17       1    1392    1393    1358    1359
      18       1    1391    1383    1382    1393
      19       1    1393    1382    1357    1358
      20       1    1345    1346    1394    1381
$ ... 2580 like lines cut
*NODE
       1   2.5000000e+02  -1.7600000e+02   2.5000000e+02
       2   2.5000000e+02  -1.5850000e+02   2.5000000e+02
       3   2.5000000e+02  -1.4100000e+02   2.5000000e+02
       4   2.5000000e+02  -1.2350000e+02   2.5000000e+02
       5   2.5000000e+02  -1.0600000e+02   2.5000000e+02
       6   2.5000000e+02  -8.8500000e+01   2.5000000e+02
       7   2.5000000e+02  -7.1000000e+01   2.5000000e+02
       8   2.5000000e+02  -5.3500000e+01   2.5000000e+02
       9   2.5000000e+02  -3.6000000e+01   2.5000000e+02
      10   2.5000000e+02  -1.8000000e+01   2.5000000e+02
      11   2.5000000e+02   0.0000000e+00   2.5000000e+02
      12   2.5000000e+02   1.7500000e+01   2.5000000e+02
      13   2.5000000e+02   3.5000000e+01   2.5000000e+02
      14   2.5000000e+02   5.2500000e+01   2.5000000e+02
      15   2.5000000e+02   7.0000000e+01   2.5000000e+02
      16   2.5000000e+02   8.7500000e+01   2.5000000e+02
      17   2.5000000e+02   1.0500000e+02   2.5000000e+02
      18   2.5000000e+02   1.2250000e+02   2.5000000e+02
      19   2.5000000e+02   1.4000000e+02   2.5000000e+02
      20   2.4755276e+02   1.4000000e+02   2.6545081e+02
$ ... 2578 like lines cut
*INCLUDE
$tank.cv.inflator.k
$*INCLUDE
tank.ale.k
*END
