$ added cvid to database_fsi - just cosmetic change for lsprepost
$ one more layer added to make sure the can does not leak at the bottom
$ point source nodes 4000 4001 4002 4003 4004 spc'd
$ moved nodes 4001 to 4003 from z=-0.01 to z=-0.03
$ node 9272 added and spc'd for just one point source
$ point source changed to 0.2e-4 each = total of 1.0e-4 = 10 x 10 mm total jet area
$ using only one point source at node 9272. 5 point sources require finer ale mesh
$ change point source temperature curve from 4 to 2
$ change point source velocity from 500 to 10.0
$ added a rigidwall to make sure the bottom part of bag does not go out of ale mesh
$ last point of massflow and temperature curve removed
$ last point for velocity curve changed to x=0.0784
*KEYWORD 
*TITLE
C170 Driver Bag Folded on 07-17-03
*control_structured
*database_binary_runrsf
1000
*database_glstat
1.e-4
*database_matsum
1.e-4
*database_sleout
1.e-4
*control_energy
2
*DATABASE_ABSTAT
$#      DT
    0.0001
$DAMPING_GLOBAL
$              2000.
*DATABASE_BINARY_D3PLOT
$#      DT      LCDT    NOBEAM     NPLTC
$     0.002         0         0         0
.0010
*CONTROL_CONTACT
$#  SLSFAC    RWPNAL    ISLCHK    SHLTHK    PENOPT    THKCHG     ORIEN
       0.1        0.         0         0         0         0         2
$#  USRSTR    USRFRC     NSBCS    INTERM     XPENE     SSTHK      ECDT   TIEDPRJ
         0         0         0         0     2000.         0         0         0
*CONTROL_TERMINATION
$#  ENDTIM    ENDCYC     DTMIN    ENDENG    ENDMAS
    0.1500         0        0.        0.        0.
*CONTROL_TIMESTEP
$#  DTINIT    TSSFAC      ISDO    TSLIMT     DT2MS      LCTM     ERODE     MSIST
        0.        .8         0        0.       0.0         0         0         0
$$ HM_OUTPUT_DECK created 16:26:44 10-09-2003 by HyperMesh Version 5.1       
$$ Generated using HyperMesh-Ls-dyna Template Version : 5.1-4
*NODE
       5            0.25           -0.25             0.0
       6           -0.25           -0.25             0.0
       7            0.25            0.25             0.0
       8           -0.25            0.25             0.0
       9           -0.25           -0.251.3877787808E-17
      10         -0.1875           -0.25             0.0
      11          -0.125           -0.256.9388939039E-18
      12         -0.0625           -0.25             0.0
      13             0.0           -0.25             0.0
      14          0.0625           -0.25             0.0
      15           0.125           -0.25             0.0
      16          0.1875           -0.25             0.0
      17            0.25           -0.25             0.0
      18           -0.25            0.251.3877787808E-17
      19         -0.1875            0.25             0.0
      20          -0.125            0.256.9388939039E-18
      21         -0.0625            0.25             0.0
      22             0.0            0.25             0.0
      23          0.0625            0.25             0.0
      24           0.125            0.25             0.0
$ ... 166 like lines cut
*ELEMENT_SHELL
$      1       1       9      10      45      28
       1       1      10      45      28      28
       2       1      10      11      46      45
       3       1      11      12      47      46
       4       1      12      13      48      47
       5       1      13      14      49      48
       6       1      14      15      50      49
       7       1      15      16      51      50
$      8       1      16      17      37      51
       8       1      16      37      51      51
       9       1      28      45      52      29
      10       1      45      46      53      52
      11       1      46      47      54      53
      12       1      47      48      55      54
      13       1      48      49      56      55
      14       1      49      50      57      56
      15       1      50      51      58      57
      16       1      51      37      38      58
      17       1      29      52      59      30
      18       1      52      53      60      59
      19       1      53      54      61      60
      20       1      54      55      62      61
      21       1      55      56      63      62
      22       1      56      57      64      63
      23       1      57      58      65      64
      24       1      58      38      39      65
      25       1      30      59      66      31
      26       1      59      60      67      66
      27       1      60      61      68      67
$ ... 29 like lines cut
$     57       1      34      87      19      35
      57       1      34      87      19      19
      58       1      87      88      20      19
      59       1      88      89      21      20
      60       1      89      90      22      21
      61       1      90      91      23      22
      62       1      91      92      24      23
      63       1      92      93      25      24
$     64       1      93      43      44      25
      64       1      93      43      25      25
$     65       2       9      28     126      10
      65       2      28     126      10      10
      66       2      10     126     127      11
      67       2      11     127     128      12
      68       2      12     128     129      13
      69       2      13     129     130      14
      70       2      14     130     131      15
      71       2      15     131     132      16
$     72       2      16     132      37      17
      72       2      16     132      37      37
      73       2      28      29     133     126
      74       2     126     133     134     127
      75       2     127     134     135     128
      76       2     128     135     136     129
      77       2     129     136     137     130
      78       2     130     137     138     131
      79       2     131     138     139     132
      80       2     132     139      38      37
      81       2      29      30     140     133
      82       2     133     140     141     134
      83       2     134     141     142     135
      84       2     135     142     143     136
      85       2     136     143     144     137
      86       2     137     144     145     138
      87       2     138     145     146     139
      88       2     139     146      39      38
      89       2      30      31     147     140
      90       2     140     147     148     141
      91       2     141     148     149     142
$ ... 25 like lines cut
$    121       2      34      35      19     168
     121       2      34      19     168     168
     122       2     168      19      20     169
     123       2     169      20      21     170
     124       2     170      21      22     171
     125       2     171      22      23     172
     126       2     172      23      24     173
     127       2     173      24      25     174
$    128       2     174      25      44      43
     128       2     174      25      43      43
     321       3     204     144     143     209
     322       3     209     143     142     210
     323       3     142     149     222     210
     324       3     149     156     227     222
     325       3     227     156     157     233
     326       3     233     157     158     234
     327       3     144     204     254     151
     328       3     151     254     234     158
     329       3     210     222     272     209
     330       3     209     272     254     204
     331       3     222     227     233     272
     332       3     272     233     234     254
*MAT_FABRIC
$#     MID        RO        EA        EB        EC      PRBA      PRCA      PRCB
         1      647.  2.81E+08  2.81E+08  2.81E+08      0.30      0.30      0.30
$#     GAB       GBC       GCA       CSE        EL       PRL    LRATIO      DAMP
        0.        0.        0.        1.        0.        0.      0.10      0.05
$#    AOPT       FLC       FAC       ELA      LNRC      FORM
        3.        0.        1.        0.        1.        0.

$#      V1        V2        V3
        1.        1.        1.
*SECTION_SHELL
$#   SECID    ELFORM      SHRF       NIP     PROPT        QR     ICOMP
         1         0        0.        0.        0.        0.         0
$#      T1        T2        T3        T4
   0.00035   0.00035   0.00035   0.00035
*PART
TOP
$#     PID     SECID       MID     EOSID      HGID      GRAV    ADPOPT      TMID
         1         1         1         0         0         0         0         0
BOTTOM
$#     PID     SECID       MID     EOSID      HGID      GRAV    ADPOPT      TMID
         2         1         1         0         0         0         0         0
CANISTER
$#     PID     SECID       MID     EOSID      HGID      GRAV    ADPOPT      TMID
         3         1         1         0         0         0         0         0
VEHICLE 
$#     PID     SECID       MID     EOSID      HGID      GRAV    ADPOPT      TMID
         4         1         4         0         0         0         0         0
*MAT_RIGID
         4   7850.00  2.07E+11
       1.0       5.0      7.00
       0.0
*SET_PART
         1        0.        0.        0.        0.
         1         2         3         
*DEFINE_CURVE
         1         0        1.       1.0        0.        0.         0
    0.0000                0.00 
    0.0001                0.00 
    0.0002                0.00 
    0.0003                0.00 
    0.0004                0.00 
    0.0005                0.00 
    0.0006                0.00 
    0.0007                0.00 
    0.0008                0.00 
    0.0009                0.00 
    0.0010                0.00 
    0.0011                0.00 
    0.0012                0.00 
    0.0013                0.00 
    0.0014                0.00 
    0.0015                0.00 
    0.0016                0.00 
    0.0017                0.00 
    0.0018                0.00 
$ ... 766 like lines cut
$   0.1785                0.01 
*DEFINE_CURVE
$#    LCID      SIDR      SCLA      SCLO      OFFA      OFFO    DATTYP
         2         0        1.       1.0        0.        0.         0
$#                A1                  O1
     0.0000               293.00 
     0.0001               293.00 
     0.0002               293.00 
     0.0003               293.00 
     0.0004               293.00 
     0.0005               293.00 
     0.0006               293.00 
     0.0007               293.00 
     0.0008               293.00 
     0.0009               293.00 
     0.0010               293.00 
     0.0011               293.00 
     0.0012               293.00 
     0.0013               293.00 
     0.0014               293.00 
     0.0015               293.00 
     0.0016               293.00 
     0.0017               293.00 
     0.0018               293.00 
     0.0019               293.00 
$ ... 765 like lines cut
$    0.1785               445.54 
*AIRBAG_REFERENCE_GEOMETRY_RDT
       5            0.25           -0.25             0.0
       6           -0.25           -0.25             0.0
       7            0.25            0.25             0.0
       8           -0.25            0.25             0.0
       9           -0.25           -0.251.3877787808E-17
      10         -0.1875           -0.25             0.0
      11          -0.125           -0.256.9388939039E-18
      12         -0.0625           -0.25             0.0
      13             0.0           -0.25             0.0
      14          0.0625           -0.25             0.0
      15           0.125           -0.25             0.0
      16          0.1875           -0.25             0.0
      17            0.25           -0.25             0.0
      18           -0.25            0.251.3877787808E-17
      19         -0.1875            0.25             0.0
      20          -0.125            0.256.9388939039E-18
      21         -0.0625            0.25             0.0
      22             0.0            0.25             0.0
      23          0.0625            0.25             0.0
      24           0.125            0.25             0.0
$ ... 166 like lines cut
$ FOR ALE
*CONTROL_ALE
$      DCT      NADV      METH      AFAC      BFAC      CFAC      DFAC      EFAC
         2         1         1        -1
$    START       END     AAFAC     VFACT    VLIMIT       EBC     P_ref
$        0         0         0         0         0         0  101325.0
         0         0         0         0         0         0  
*include
set1
*load_segment_set
1,1000
*define_curve
1000
0,101325.0
0.03, 101325.0
*NODE
     993            -0.3             0.3           -0.01
     994            -0.3            -0.3           -0.01
     995             0.3             0.3           -0.01
     996             0.3            -0.3           -0.01
     997            -0.3            -0.3           -0.01
     998            -0.3           -0.24           -0.01
     999            -0.3           -0.18           -0.01
    1000            -0.3           -0.12           -0.01
    1001            -0.3           -0.06           -0.01
    1002            -0.3             0.0           -0.01
    1003            -0.3            0.06           -0.01
    1004            -0.3            0.12           -0.01
    1005            -0.3            0.18           -0.01
    1006            -0.3            0.24           -0.01
    1007            -0.3             0.3           -0.01
    1008             0.3            -0.3           -0.01
    1009             0.3           -0.24           -0.01
    1010             0.3           -0.18           -0.01
    1011             0.3           -0.12           -0.01
    1012             0.3           -0.06           -0.01
$ ... 981 like lines cut
*ELEMENT_SOLID
    1356      20    1509    1489    1485    1508    1630    1610    1606    1629
    1355      20    1508    1485    1486    1507    1629    1606    1607    1628
    1354      20    1507    1486    1506    1505    1628    1607    1627    1626
    1353      20    1505    1506    1504    1503    1626    1627    1625    1624
    1352      20    1503    1504    1502    1501    1624    1625    1623    1622
    1351      20    1501    1502    1500    1499    1622    1623    1621    1620
    1350      20    1499    1500    1498    1495    1620    1621    1619    1616
    1349      20    1495    1498    1497    1496    1616    1619    1618    1617
    1348      20    1493    1494    1492    1491    1614    1615    1613    1612
    1347      20    1491    1492    1490    1489    1612    1613    1611    1610
    1346      20    1489    1490    1488    1485    1610    1611    1609    1606
    1345      20    1485    1488    1487    1486    1606    1609    1608    1607
    1344      20    1365    1366    1484    1385    1486    1487    1605    1506
    1343      20    1385    1484    1483    1383    1506    1605    1604    1504
    1342      20    1383    1483    1482    1381    1504    1604    1603    1502
    1341      20    1381    1482    1481    1379    1502    1603    1602    1500
    1340      20    1379    1481    1479    1377    1500    1602    1600    1498
    1339      20    1377    1479    1480    1376    1498    1600    1601    1497
    1338      20    1373    1478    1477    1371    1494    1599    1598    1492
    1337      20    1371    1477    1476    1369    1492    1598    1597    1490
$ ... 696 like lines cut
*AIRBAG_ALE
$#1    SID    SIDTYP      RBID      VSCA      PSCA      VINI       MWD      SPSF
         1         1         0        0.        0.        0.        0.        0.
$#2   ATMT      ATMP      ATMD        GC        CC
      298.   101325. 1.1823657     8.314        1.   
$#3  nquad     ctype      pfac      fric    frcmin   normtyp     ileak     pleak
                         -321.
$#3 VntSet    VntTyp    Iblock    VntCoe
         0         0         0         0
$#4   PAIR      PGAS              movern     izoom
$       20        19                 872         1
        20        19
$#5 SWTIME     SWRAT   HRGLASS   NAirCmp   NGasCmp    NOrifc     LCVel       LCT
$    0.050     0.000     1.e-4         2         1         1         3         2
     0.010     0.000     1.e-4         2         1         1         3         2
$#6 AIR                            MWAir     INITM      AirA      AirB
                                   0.028      0.80    27.296   0.00523
                                   0.032      0.20    25.723   0.01298
$#8 GAS LM                         MWGas                GasA      GasB
         1                        0.0249              29.680   0.00880
$   NODEID    VECTID      AREA
      9272         11.0000e-04
*DEFINE_CURVE
         3
0.000000E+00,  10.000000000
     0.07840,  10.000000000
*DEFINE_VECTOR
         1        0.        0.        0.        0.        0.       0.1
$-------------------------------------------------------------------------------
$ Per Lars : we should couple to only inflator gas for kg-m-s-K   - 07-30-02
$ bag penetration = 1 mm  <====>  P = 50000 pascal ==> 2 atm ==> 5 atm
*DEFINE_CURVE
  321
  0.0, 0.0
  1.0e-3, 5.0e5
*DEFINE_CURVE
         4         0        1.       1.0        0.        0.         0
     0.0000               630.00 
     0.1500               630.00
*DATABASE_ELOUT
1.0000E-04
*DATABASE_HISTORY_SOLID
      1163    1164    1263    1264
*DATABASE_FSI
1e-5
1,100,0
*set_part
100
1,2,3
$ one more layer added to make sure the can does not leak at the bottom
*ELEMENT_SOLID
    2376      20    1994    1995    1996    1997    9299    9300    9301    9302
    2377      20    1998    1999    2000    2001    9303    9304    9305    9306
    2378      20    2002    1998    2001    2003    9307    9303    9306    9308
    2379      20    2004    2002    2003    1995    9309    9307    9308    9300
    2380      20    2005    2004    1995    1994    9310    9309    9300    9299
    2381      20    2006    2007    1999    1998    9311    9312    9304    9303
    2382      20    2008    2006    1998    2002    9313    9311    9303    9307
    2383      20    2009    2008    2002    2004    9314    9313    9307    9309
    2384      20    2010    2009    2004    2005    9315    9314    9309    9310
    2385      20    2011    2012    2007    2006    9316    9317    9312    9311
    2386      20    2013    2011    2006    2008    9318    9316    9311    9313
    2387      20    2014    2013    2008    2009    9319    9318    9313    9314
    2388      20    2015    2014    2009    2010    9320    9319    9314    9315
    2389      20    2001    2000    2016    2017    9306    9305    9321    9322
    2390      20    2003    2001    2017    2018    9308    9306    9322    9323
    2391      20    1995    2003    2018    1996    9300    9308    9323    9301
*NODE
    9299   5.9996400e-02  -1.2000180e-01  -1.3499999e-01
    9300   5.9996400e-02  -6.0002401e-02  -1.3499999e-01
    9301   1.1999580e-01  -6.0002401e-02  -1.3499999e-01
    9302   1.1999580e-01  -1.2000180e-01  -1.3499999e-01
    9303  -2.9999701e-06   5.9996400e-02  -1.3499999e-01
    9304  -2.9999701e-06   1.1999580e-01  -1.3499999e-01
    9305   5.9996400e-02   1.1999580e-01  -1.3499999e-01
    9306   5.9996400e-02   5.9996400e-02  -1.3499999e-01
    9307  -2.9999701e-06  -2.9999701e-06  -1.3499999e-01
    9308   5.9996400e-02  -2.9999701e-06  -1.3499999e-01
    9309  -2.9999701e-06  -6.0002401e-02  -1.3499999e-01
    9310  -2.9999701e-06  -1.2000180e-01  -1.3499999e-01
    9311  -6.0002401e-02   5.9996400e-02  -1.3499999e-01
    9312  -6.0002401e-02   1.1999580e-01  -1.3499999e-01
    9313  -6.0002401e-02  -2.9999701e-06  -1.3499999e-01
    9314  -6.0002401e-02  -6.0002401e-02  -1.3499999e-01
    9315  -6.0002401e-02  -1.2000180e-01  -1.3499999e-01
    9316  -1.2000180e-01   5.9996400e-02  -1.3499999e-01
    9317  -1.2000180e-01   1.1999580e-01  -1.3499999e-01
    9318  -1.2000180e-01  -2.9999701e-06  -1.3499999e-01
$ ... 5 like lines cut
*NODE
    9272  -1.0937391e-06  -2.1874625e-06     -0.03000000
*RIGIDWALL_PLANAR
$#    nsid    nsidex     boxid    offset
         2         0         0       0.0
$#      xt        yt        zt        xh        yh        zh      fric      wvel
  0.062497 -0.062502 -0.006000  0.062497 -0.062502  0.994000       0.0       0.0
*SET_NODE_LIST_TITLE
wallset
$#     sid       da1       da2       da3       da4
         2       0.0       0.0       0.0       0.0
$#    nid1      nid2      nid3      nid4      nid5      nid6      nid7      nid8
        10        11        12        13        14        15        16        19
        20        21        22        23        24        25        28        29
        30        31        32        33        34        37        38        39
        40        41        42        43        45        46        47        48
        49        50        51        52        53        54        55        56
        57        58        59        60        61        62        63        64
        65        66        67        68        69        70        71        72
        73        74        75        76        77        78        79        80
        81        82        83        84        85        86        87        88
        89        90        91        92        93       126       127       128
       129       130       131       132       133       134       135       136
       137       138       139       140       141       142       143       144
       145       146       147       148       149       151       152       153
       154       155       156       157       158       159       160       161
       162       163       164       165       166       167       168       169
       170       171       172       173       174
*CONSTRAINED_EXTRA_NODES_SET
         4         3
*SET_NODE_LIST_TITLE
extra
         3       0.0       0.0       0.0       0.0
       142       143       144       149       151       156       157       158
       204       209       210       222       227       233       234       254
       272      9272
*BOUNDARY_PRESCRIBED_MOTION_RIGID
         4         1         0        29 1.0000000         0
*DEFINE_CURVE
$#    LCID      SIDR      SCLA      SCLO      OFFA      OFFO    DATTYP
        29         0        1.       1.0        0.        0.         0
    0.0000000000e+00    0.0000000000e+00
    2.0000000950e-03    1.7299898900e-03
    4.0000001900e-03    8.5212299600e-03
    6.0000000522e-03    2.7766998857e-02
    8.0000003800e-03    9.7466297448e-02
    1.0000000708e-02    3.1488600373e-01
    1.2000000104e-02    4.6867901087e-01
    1.4000000432e-02    7.1092498302e-01
    1.6000000760e-02    9.1829395294e-01
    1.8000001088e-02    1.2574700117e+00
    2.0000001416e-02    1.5599800348e+00
    2.2000001743e-02    1.8177498579e+00
    2.4000000209e-02    2.0722000599e+00
    2.6000000536e-02    2.2941999435e+00
    2.8000000864e-02    2.6125297546e+00
    3.0000001192e-02    2.9466099739e+00
    3.2000001520e-02    3.3558299541e+00
    3.4000001848e-02    3.7929298878e+00
    3.6000002176e-02    4.2595400810e+00
$ ... 61 like lines cut
*ALE_REFERENCE_SYSTEM_NODE
       872
       272       254       233
         0
*ELEMENT_SHELL
    2392      22    9328    9329    9341    9340
    2393      22    9329    9330    9342    9341
    2394      22    9330    9331    9343    9342
    2395      22    9331    9332    9344    9343
    2396      22    9332    9333    9345    9344
    2397      22    9333    9334    9346    9345
    2398      22    9334    9335    9347    9346
    2399      22    9335    9336    9348    9347
    2400      22    9336    9337    9349    9348
    2401      22    9337    9338    9350    9349
    2402      22    9338    9339    9351    9350
    2403      22    9340    9341    9353    9352
    2404      22    9341    9342    9354    9353
    2405      22    9342    9343    9355    9354
    2406      22    9343    9344    9356    9355
    2407      22    9344    9345    9357    9356
    2408      22    9345    9346    9358    9357
    2409      22    9346    9347    9359    9358
    2410      22    9347    9348    9360    9359
    2411      22    9348    9349    9361    9360
$ ... 101 like lines cut
*NODE
    9328  -3.1800002e-01  -3.1800002e-01  -6.0000001e-03
    9329  -3.1799999e-01  -2.6018181e-01  -6.0000001e-03
    9330  -3.1800002e-01  -2.0236365e-01  -6.0000001e-03
    9331  -3.1800002e-01  -1.4454547e-01  -6.0000001e-03
    9332  -3.1800002e-01  -8.6727269e-02  -6.0000001e-03
    9333  -3.1800002e-01  -2.8909070e-02  -6.0000001e-03
    9334  -3.1800002e-01   2.8909110e-02  -6.0000001e-03
    9335  -3.1800002e-01   8.6727284e-02  -5.9999996e-03
    9336  -3.1800002e-01   1.4454548e-01  -6.0000001e-03
    9337  -3.1800002e-01   2.0236367e-01  -6.0000001e-03
    9338  -3.1800002e-01   2.6018184e-01  -6.0000001e-03
    9339  -3.1800002e-01   3.1800002e-01  -6.0000001e-03
    9340  -2.6018181e-01  -3.1799999e-01  -6.0000001e-03
    9341  -2.6018181e-01  -2.6018184e-01  -6.0000001e-03
    9342  -2.6018181e-01  -2.0236363e-01  -6.0000001e-03
    9343  -2.6018184e-01  -1.4454547e-01  -5.9999996e-03
    9344  -2.6018184e-01  -8.6727269e-02  -6.0000001e-03
    9345  -2.6018181e-01  -2.8909056e-02  -5.9999996e-03
    9346  -2.6018181e-01   2.8909093e-02  -6.0000001e-03
    9347  -2.6018181e-01   8.6727284e-02  -5.9999996e-03
$ ... 124 like lines cut
*CONSTRAINED_RIGID_BODIES
         4        22
*PART
DASHPANEL
$#     PID     SECID       MID     EOSID      HGID      GRAV    ADPOPT      TMID
        22        22        22         0         0         0         0         0
*SECTION_SHELL
$#   SECID    ELFORM      SHRF       NIP     PROPT        QR     ICOMP
        22         0        0.        0.        0.        0.         0
$#      T1        T2        T3        T4
   0.00035   0.00035   0.00035   0.00035
*MAT_RIGID
        22      647.  2.81E+08
       0.0       0.0      0.00
       0.0
*CONTACT_AIRBAG_SINGLE_SURFACE
$     SSID      MSID     SSTYP     MSTYP    SBOXID    MBOXID       SPR       MPR
        33         0         2         0         0         0         0         0
$       FS        FD        DC        VC       VDC    PENCHK        BT        DT
 0.1000000 0.0000000 0.0000000 0.0000000 0.0000000         0 0.0000000  0.000000
$      SFS       SFM       SST       MST      SFST      SFMT       FSF       VSF
 0.0000000 0.0000000 0.0000000 0.0000000 0.0000000 0.0000000
$     SOFT    SOFSCL    LCIDAB    MAXPAR      EDGE     DEPTH     BSORT    FRCFRQ
         2 0.0000000         0 0.0000000 0.0000000         0         0         0
*SET_PART_LIST
        33
         1         2        22
*END
