$*KEYWORD 95083704  
*KEYWORD  
*TITLE
ALE Analysis Updated (UNIT: kg-mm-ms-K)
$$ HM_OUTPUT_DECK created 17:18:10 07-28-2003 by HyperMesh Version 5.1       
$$ Generated using HyperMesh-Ls-dyna Template Version : 5.0-1
$===============================================================================
*CONTROL_STRUCTURED
*CONTROL_HOURGLASS
 4
$===============================================================================
$ [1] EXECUTION CONTROLS
$===============================================================================
*CONTROL_TERMINATION
$   ENDTIM    ENDCYC     DTMIN    ENDENG    ENDMAS 
      25.0         0 0.0000000         0 0.0000000
*CONTROL_TIMESTEP
$   DTINIT    TSSFAC      ISDO    TSLIMT     DT2MS      LCTM     ERODE     MS1ST
 0.0000000 0.4500000         0 0.0000000    0.0E-3         0         0         0
$0.0000000 0.6000000         0 0.0000000    0.0E-3         0         0         0
*CONTROL_SHELL
$   WRPANG    ITRIST     IRNXX    ISTUPD    THEORY       BWC     MITER      PROJ
 40.000000         2        -1         0         2         2         1
$-------------------------------------------------------------------------------
$ IGNORE = ignore init penetration in contact_automatic: 
$        = 0 = move nodes to eliminate init penetration
$        = 1 = allow init penetration to exist by tracking them.
$-------------------------------------------------------------------------------
*CONTROL_CONTACT
$   SLSFAC    RWPNAL    ISLCHK    SHLTHK    PENOPT    THKCHG     ORIEN    ENMASS
 0.0000000 0.0000000         0         0         0         0         0
$   USRSTR    USRFRC     NSBCS    INTERM     XPENE     SSTHK      ECDT   TIEDPRJ
         0         0         0         0 0.0000000         0         0         0
$    SFRIC     DFRIC       EDC       VFC        TH     TH_SF    PEN_SF    FRCENG
         0
$   IGNORE    FRCENG
         1
*CONTROL_OUTPUT
$     NOPT    NEECHO    NREFUP    IACCOP     OPIFS    IPNINT    IKEDIT    IFLUSH
         0         0         0         0 0.0000000         0         0
*CONTROL_ENERGY
$    HGEN1     RWEN2   SLNTEN1    RYLEN1                     1=no;2=calc&include
         2         2         2         2
$===============================================================================
$ [3] OUTPUT CONTROLS
$===============================================================================
*DATABASE_BINARY_D3PLOT
$       DT      CYCL      LCDT      BEAM  
$1.0000000                   0
 0.5000000                   0
*DATABASE_EXTENT_BINARY
         0         0         0         0         0         0         0         0
         0         0         0         0         0         0
*DATABASE_RWFORC
 0.1000000
*DATABASE_ABSTAT
 0.1000000
*DATABASE_GLSTAT
 0.1000000
*DATABASE_MATSUM
 0.1000000
$===============================================================================
$ LAGRANGIAN PART DEFINITIONS
$===============================================================================
*MAT_RIGID
$      MID        RO         E        PR         N    COUPLE         M
         1 7.8500-06 2.0000000 0.3000000 0.0000000 0.0000000 0.0000000
$      CMO      CON1      CON2
 1.0000000 7.0000000 7.0000000
$       A1        A2        A3        V1        V2        V3
 0.0000000 0.0000000 0.0000000 0.0000000 0.0000000 0.0000000 0.0000000 0.0000000
$===============================================================================
*DAMPING_PART_STIFFNESS
 5, 0.25
 7, 0.25
 6, 0.25
 8, 0.25
$===============================================================================
*PART
$HMNAME COMPS     100can                        
$HMCOLOR COMPS     100       3
inflator can
       100         1         1         0         0         0         0
*SECTION_SHELL
$    SECID    ELFORM      SHRF       NIP     PROPT   QR/IRID     ICOMP
         1         5 0.0000000 4.0000000 0.0000000 0.0000000         1
$       T1        T2        T3        T4      NLOC
 0.4000000 0.4000000 0.4000000 0.4000000 0.0000000
$       B1        B2        B3        B4        B5        B6        B7        B8
       0.0       0.0       0.0       0.0
*MAT_FABRIC
$      MID        RO        EA        EB        EC      PRBA      PRCA      PRCB
         3 8.76000-7  .6000000  .0000000  .0000000  .2000000  .0000000  .0000000
$      GAB       GBC       GCA       CSE        EL       PRL    LRATIO      DAMP
  .0000000  .0000000  .0000000 1.0000000  .0600000  .3500000  .1000000  .2000000
$     AOPT       FLC       FAC       ELA      LNRC      FORM
 3.0000000
$                                     A1        A2        A3
 1.0000000  .0000000  .0000000 1.0000000  .0000000  .0000000
$       V1        V2        V3        D1        D2        D3      BETA
 1.0000000  .0000000  .0000000  .0000000  .0000000  .0000000
$===============================================================================
*PART
$HMNAME COMPS       7holef                           
$HMCOLOR COMPS       7      10
                                                                                
         7         1         3         0         0         0         0
*PART
$HMNAME COMPS       8holer                          
$HMCOLOR COMPS       8      10
                                                                                
         8         1         3         0         0         0         0
*PART
$HMNAME COMPS       6rear-baff                       
$HMCOLOR COMPS       6      25
                                                                                
         6         1         3         0         0         0         0
*PART
$HMNAME COMPS       5front-tether                       
$HMCOLOR COMPS       5       5
                                                                                
         5         1         3         0         0         0         0
*PART
$HMNAME COMPS       4chamber-1                       
$HMCOLOR COMPS       4      13
                                                                                
         4         2         3         0         0         0         0
*PART
$HMNAME COMPS       3chamber-2                        
$HMCOLOR COMPS       3       3
                                                                                
         3         1         3         0         0         0         0
*PART
$HMNAME COMPS       2chamber+1                        
$HMCOLOR COMPS       2      10
                                                                                
         2         2         3         0         0         0         0
*PART
$HMNAME COMPS       1chamber+2                        
$HMCOLOR COMPS       1       4
                                                                                
         1         1         3         0         0         0         0
*SECTION_SHELL
$HMNAME PROPS       2sh_0.8                          
         2         5       1.0         1       0.0       0.0         0
8.0000E-018.0000E-018.0000E-018.0000E-01       0.0
$
$++++++++++++++++++++++++++++++++++++++++++++++++++++++++++++++++++++++++
*RIGIDWALL_PLANAR
$HMNAME GROUPS       3RigidWallPlan_3                 
$HMCOLOR GROUPS       3       1
        90         0         0          
     18.45      50.0    0.5000   -181.55      50.0      0.50
$===============================================================================
$ [9] LAGRANGIAN CONTACTS CONSTRAINTS, ...
$===============================================================================
*CONTACT_AUTOMATIC_SINGLE_SURFACE
$     SSID      MSID     SSTYP     MSTYP    SBOXID    MBOXID       SPR       MPR
        71         0         2         0         0         0         0         0
$       FS        FD        DC        VC       VDC    PENCHK        BT        DT
 0.5000000 0.0000000 0.0000000 0.0000000 0.0000000         0 0.0000000  0.000000
$      SFS       SFM       SST       MST      SFST      SFMT       FSF       VSF
 0.0000000 0.0000000 0.5000000 0.0000000 0.0000000 0.0000000
$     SOFT    SOFSCL    LCIDAB    MAXPAR      EDGE     DEPTH     BSORT    FRCFRQ
         2 0.0000000         0 0.0000000 0.0000000         3         5         0
*SET_PART_LIST
        71
         1         3         8         6 
*CONTACT_AUTOMATIC_SINGLE_SURFACE
$     SSID      MSID     SSTYP     MSTYP    SBOXID    MBOXID       SPR       MPR
        81         0         2         0         0         0         0         0
$       FS        FD        DC        VC       VDC    PENCHK        BT        DT
 0.5000000 0.0000000 0.0000000 0.0000000 0.0000000         0 0.0000000  0.000000
$      SFS       SFM       SST       MST      SFST      SFMT       FSF       VSF
 0.0000000 0.0000000 0.5000000 0.0000000 0.0000000 0.0000000
$     SOFT    SOFSCL    LCIDAB    MAXPAR      EDGE     DEPTH     BSORT    FRCFRQ
         2 0.0000000         0 0.0000000 0.0000000         3         5         0
*SET_PART_LIST
        81
         4         2         5         7 
$
$-----------------------------------------------------
*NODE
       1-123.7038047488941.8427289457809-1.110223025E-16
       2-144.1900835903740.34276920329970.75000000000008
       4-291.88928166292195.8404913629341.89985121204226
       7-188.70512650398269.2062111425391.89985121204342
       9-144.1900835903640.34276920329841.64999999999984
      10-151.82888235617513.844518843447             0.0
      11-170.15660110694522.162989408759             0.0
      12 -244.3223728532605.461347917246             0.0
      13-182.82487354053535.773307923938             0.0
      14-194.76185223981551.935819092624             0.0
      15-211.68507442137560.746486774252             0.0
      16-272.43463767954619.697434343179             0.0
      17-144.33128196003496.369833943375             0.0
      18-226.89661260539570.867520314889             0.0
      19-264.66728410125606.124507422189             0.0
      20-241.34252249578580.983700333896             0.0
      21-163.67348660993499.431162503786             0.0
      22-257.50332832629589.906046039446             0.0
      23-145.43530069197 476.63378344316             0.0
      24-180.66064914889508.689680971092             0.0
$ ... 1378 like lines cut
*ELEMENT_SHELL
       1       1     454     466     440     440
       2       1     609     532     705     705
       3       1     461     473     482     482
       4       1     326     344     301     301
       5       1     294     316     336     336
       6       1     306     317     274     274
       7       1     286     310     269     269
       8       1     242     249     286     286
       9       1     244     282     254     254
      10       1     252     276     237     237
      11       1     236     269     244     244
      12       1     247     262     223     223
      13       1     212     254     228     228
      14       1     609     538     532     532
      15       1     201     189     228     228
      16       1     279     293     312     312
      17       1     154     180     172     172
      18       1     161     177     151     151
      19       1     144     153     126     126
      20       1     125     148     139     139
$ ... 346 like lines cut
*ELEMENT_SHELL
    1593       8       7     767     766     766
    1594       8     766     699       7       7
    1595       8       7     734     700     700
    1596       8       7     700     767     767
    1597       8     766     765     699     699
    1598       8       7     733     734     734
    1599       8     726     438     725     725
    1600       8     733     699     732     732
    1601       8     733       7     699     699
    1602       8       4     726     727     727
    1603       8     726       4     438     438
    1604       8       4     727     608     608
    1605       8       4     744     746     746
    1606       8     746     438       4       4
    1607       8       4     608     744     744
    1608       8     746     748     438     438
    1609       7       9       1     676     676
    1610       7       9     677       1       1
    1611       7     677       9     690     690
    1612       7       9     676     691     691
$ ... 4 like lines cut
*ELEMENT_SHELL
      36       1     721     705     532     523
      37       1     178     721     523     519
      38       1     532     538     522     513
      39       1     610     178     519     511
      40       1     611     610     511     508
      41       1     523     532     513     505
      42       1     612     611     508     503
      43       1     613     612     503     499
      44       1     519     523     505     498
      45       1     513     522     504     492
      46       1     499     488     614     613
      47       1     511     519     498     489
      48       1     508     511     489     487
      49       1     505     513     492     486
      50       1     488     478     615     614
      51       1     503     508     487     480
      52       1     498     505     486     475
      53       1     499     503     480     474
      54       1     492     504     482     473
      55       1     616     615     478     470
$ ... 1206 like lines cut
$$
$$ Sets Defined In HyperMesh
$$
*SET_NODE_LIST
$HMSET
$HMNAME SETS      90Nodeset90                       
        90                                        
         1         2         4         7         9        10        11        12
        13        14        15        16        17        18        19        20
        21        22        23        24        25        26        27        28
        29        30        31        32        33        34        35        36
        37        38        39        40        41        42        43        44
        45        46        47        48        49        50        51        52
        53        54        55        56        57        58        59        60
        61        62        63        64        65        66        67        68
        69        70        71        72        73        74        75        76
        77        78        79        80        81        82        83        84
        85        86        87        88        89        90        91        92
        93        94        95        96        97        98        99       100
       101       102       103       104       105       106       107       108
       109       110       111       112       113       114       115       116
       117       118       119       120       121       122       123       124
       125       126       127       128       129       130       131       132
       133       134       135       136       137       138       139       140
       141       142       143       144       145       146       147       148
       149       150       151       152       153       154       155       156
$ ... 150 like lines cut
*SET_PART_LIST
        53
         1         3         6         8
*SET_PART_LIST
        54
         2         4         6         8       100
*DEFINE_CURVE
      1000         0  1.000000  1.000000       0.0       0.0
                 0.0                 0.0
         20.00000000       3.0000002e-04
         90.00000000       3.0000002e-04
*INCLUDE
advbag.inc
*END
