*KEYWORD
*TITLE
C170 Driver Bag Folded on 07-17-03                                              
*CONTROL_ALE
$ FOR ALE
$      DCT      NADV      METH      AFAC      BFAC      CFAC      DFAC      EFAC
$#     dct      nadv      meth      afac      bfac      cfac      dfac      efac
         2         1         1 -1.000000
$    START       END     AAFAC     VFACT    VLIMIT       EBC     P_ref
$#   start       end     aafac     vfact      prit       ebc      pref   nsidebc
     0.000     0.000     0.000     0.000     0.000         0 1.0132E+5
*CONTROL_CONTACT
$#  slsfac    rwpnal    islchk    shlthk    penopt    thkchg     orien    enmass
  0.100000     0.000         0         0         0         0         2
$#  usrstr    usrfrc     nsbcs    interm     xpene     ssthk      ecdt   tiedprj
         0         0         0         0 2000.0000
$#   sfric     dfric       edc       vfc        th     th_sf    pen_sf
     0.000     0.000     0.000     0.000     0.000     0.000     0.000
$#  ignore    frceng   skiprwg    outseg   spotstp   spotdel   spothin
         0         0         0         0         0         0         0
*CONTROL_ENERGY
$#    hgen      rwen    slnten     rylen
         2
*CONTROL_STRUCTURED
*CONTROL_TERMINATION
$#  endtim    endcyc     dtmin    endeng    endmas
  0.150000
*CONTROL_TIMESTEP
$#  dtinit    tssfac      isdo    tslimt     dt2ms      lctm     erode     ms1st
     0.000  0.800000
$      1       1       9      10      45      28
$#  dt2msf   dt2mslc
     0.000         0
*DATABASE_ABSTAT
$#      dt    binary
 1.0000E-4
*DATABASE_ELOUT
$#      dt    binary
 1.0000E-4
*DATABASE_GLSTAT
$#      dt    binary
 1.0000E-4
*DATABASE_MATSUM
$#      dt    binary
 1.0000E-4
*DATABASE_SLEOUT
$#      dt    binary
 1.0000E-4
*DATABASE_BINARY_D3PLOT
$     0.002         0         0         0
$#      dt      lcdt      beam     npltc
  0.001000
$#   ioopt
         0
*DATABASE_BINARY_RUNRSF
$#    cycl  not used  not used  not used
      1000
*DATABASE_FSI
$#      dt
 1.0000E-4
$#      id       sid     stype
         1         1
*BOUNDARY_SPC_SET
$    0.1785               445.54 
$#    nsid       cid      dofx      dofy      dofz     dofrx     dofry     dofrz
         1         0         1         1         1         1         1         1
*SET_NODE_GENERAL
$#     sid       da1       da2       da3       da4
         1
$# option         e1        e2        e3        e4        e5        e6        e7
PART               3         0         0
*BOUNDARY_SPC_NODE
$#     nid       cid      dofx      dofy      dofz     dofrx     dofry     dofrz
      9272         0         1         1         1
*PART
$# title
TOP                                                                             
$#     pid     secid       mid     eosid      hgid      grav    adpopt      tmid
         1         1         1
*SECTION_SHELL
$#   secid    elform      shrf       nip     propt   qr/irid     icomp     setyp
         1
$#      t1        t2        t3        t4      nloc     marea
 3.5000E-4 3.5000E-4 3.5000E-4 3.5000E-4
*MAT_FABRIC
$#     mid        ro        ea        eb        ec      prba      prca      prcb
         1 647.00000 2.8100E+8 2.8100E+8 2.8100E+8  0.300000  0.300000  0.300000
$#     gab       gbc       gca       cse        el       prl    lratio      damp
     0.000     0.000     0.000  1.000000     0.000     0.000  0.100000  0.050000
$       3.        0.   -17420.        0.        1.        0.
$#    aopt       flc       fac       ela      lnrc      form     fvopt    tsrfac
  3.000000     0.000     0.000     0.000  1.000000
$#      xp        yp        zp        a1        a2        a3
     0.000     0.000     0.000     0.000     0.000     0.000
$#      v1        v2        v3        d1        d2        d3      beta
  1.000000  1.000000  1.000000
*PART
$# title
BOTTOM                                                                          
$#     pid     secid       mid     eosid      hgid      grav    adpopt      tmid
         2         1         1
*PART
$# title
CANISTER                                                                        
$#     pid     secid       mid     eosid      hgid      grav    adpopt      tmid
         3         1         1
*PART
$# title
HOLE L                                                                          
$#     pid     secid       mid     eosid      hgid      grav    adpopt      tmid
         4         1         1
*PART
$# title
HOLE R
$#     pid     secid       mid     eosid      hgid      grav    adpopt      tmid
         5         1         1
*RIGIDWALL_PLANAR
$#    nsid    nsidex     boxid    offset
         2
$#      xt        yt        zt        xh        yh        zh      fric      wvel
  0.062497 -0.062502 -0.006000  0.062497 -0.062502  0.994000
*DEFINE_CURVE
$#    lcid      sidr       sfa       sfo      offa      offo    dattyp
         1         0  1.000000  1.000000
$#                a1                  o1
               0.000               0.000
       9.9999997e-05
       1.9999999e-04
       3.0000001e-04
       3.9999999e-04
       5.0000002e-04
       6.0000003e-04
       6.9999998e-04
       7.9999998e-04
       8.9999998e-04
          0.00100000
          0.00110000
          0.00120000
          0.00130000
          0.00140000
          0.00150000
          0.00160000
          0.00170000
          0.00180000
          0.00190000
$ ... 765 like lines cut
*DEFINE_CURVE
$   0.1785                0.01 
$#    lcid      sidr       sfa       sfo      offa      offo    dattyp
         2         0  1.000000  1.000000
$#                a1                  o1
               0.000        293.00000000
       9.9999997e-05        293.00000000
       1.9999999e-04        293.00000000
       3.0000001e-04        293.00000000
       3.9999999e-04        293.00000000
       5.0000002e-04        293.00000000
       6.0000003e-04        293.00000000
       6.9999998e-04        293.00000000
       7.9999998e-04        293.00000000
       8.9999998e-04        293.00000000
          0.00100000        293.00000000
          0.00110000        293.00000000
          0.00120000        293.00000000
          0.00130000        293.00000000
          0.00140000        293.00000000
          0.00150000        293.00000000
          0.00160000        293.00000000
          0.00170000        293.00000000
          0.00180000        293.00000000
          0.00190000        293.00000000
$ ... 765 like lines cut
*DEFINE_CURVE
$     LCID      SIDR       SFA       SFO      OFFA      OFFO    DATTYP
$#    lcid      sidr       sfa       sfo      offa      offo    dattyp
         3
$#                a1                  o1
               0.000        500.00000000
          0.07840000        500.00000000
*DEFINE_CURVE
$#    lcid      sidr       sfa       sfo      offa      offo    dattyp
         4         0  1.000000  1.000000
$#                a1                  o1
               0.000        630.00000000
          0.15000001        630.00000000
*DEFINE_CURVE
$ Per Lars : we should couple to only inflator gas for kg-m-s-K   - 07-30-02
$ bag penetration = 1 mm  <====>  P = 50000 pascal ==> 2 atm ==> 5 atm
$#    lcid      sidr       sfa       sfo      offa      offo    dattyp
       321
$#                a1                  o1
               0.000               0.000
          0.00100000       5.0000000e+05
*DEFINE_CURVE
$#    lcid      sidr       sfa       sfo      offa      offo    dattyp
     17420         0  1.000000  1.000000
$#                a1                  o1
       1.0201450e+05
       1.0753030e+05          0.35820001
       1.1373559e+05          0.65987003
       1.2097520e+05          0.94059998
       1.2614630e+05          1.11732996
       1.3166209e+05          1.31264997
       1.3890170e+05          1.53527999
       1.4476219e+05          1.72218001
       1.5062280e+05          1.91420996
       1.5786239e+05          2.14745998
       1.6303350e+05          2.34931993
*DEFINE_VECTOR
$0.100000E+01,  10.000000000
$#     vid        xt        yt        zt        xh        yh        zh
         1     0.000     0.000     0.000     0.000     0.000  0.100000
*AIRBAG_REFERENCE_GEOMETRY_RDT
$#   nid               x               y               z
       5      0.25000000     -0.25000000
       6     -0.25000000     -0.25000000
       7      0.25000000      0.25000000
       8     -0.25000000      0.25000000
       9     -0.25000000     -0.25000000   1.3877788e-17
      10     -0.18750000     -0.25000000
      11     -0.12500000     -0.25000000   6.9388939e-18
      12     -0.06250000     -0.25000000
      13           0.000     -0.25000000
      14      0.06250000     -0.25000000
      15      0.12500000     -0.25000000
      16      0.18750000     -0.25000000
      17      0.25000000     -0.25000000
      18     -0.25000000      0.25000000   1.3877788e-17
      19     -0.18750000      0.25000000
      20     -0.12500000      0.25000000   6.9388939e-18
      21     -0.06250000      0.25000000
      22           0.000      0.25000000
      23      0.06250000      0.25000000
      24      0.12500000      0.25000000
$ ... 166 like lines cut
*SET_NODE_LIST_TITLE
wallset
$#     sid       da1       da2       da3       da4
         2
$#    nid1      nid2      nid3      nid4      nid5      nid6      nid7      nid8
        10        11        12        13        14        15        16        19
        20        21        22        23        24        25        28        29
        30        31        32        33        34        37        38        39
        40        41        42        43        45        46        47        48
        49        50        51        52        53        54        55        56
        57        58        59        60        61        62        63        64
        65        66        67        68        69        70        71        72
        73        74        75        76        77        78        79        80
        81        82        83        84        85        86        87        88
        89        90        91        92        93       126       127       128
       129       130       131       132       133       134       135       136
       137       138       139       140       141       142       143       144
       145       146       147       148       149       151       152       153
       154       155       156       157       158       159       160       161
       162       163       164       165       166       167       168       169
       170       171       172       173       174
*SET_PART_LIST
$#     sid       da1       da2       da3       da4
         1
$#    pid1      pid2      pid3      pid4      pid5      pid6      pid7      pid8
         1         2         3
*SET_SEGMENT
$#     sid       da1       da2       da3       da4
       124
$#      n1        n2        n3        n4        a1        a2        a3        a4
        65        39        40        72
*ELEMENT_SOLID
$#   eid     pid      n1      n2      n3      n4      n5      n6      n7      n8
    2392      20    9324    9325    9346    9345    9765    9766    9787    9786
    2393      20    9325    9326    9347    9346    9766    9767    9788    9787
    2394      20    9326    9327    9348    9347    9767    9768    9789    9788
    2395      20    9327    9328    9349    9348    9768    9769    9790    9789
    2396      20    9328    9329    9350    9349    9769    9770    9791    9790
    2397      20    9329    9330    9351    9350    9770    9771    9792    9791
    2398      20    9330    9331    9352    9351    9771    9772    9793    9792
    2399      20    9331    9332    9353    9352    9772    9773    9794    9793
    2400      20    9332    9333    9354    9353    9773    9774    9795    9794
    2401      20    9333    9334    9355    9354    9774    9775    9796    9795
    2402      20    9334    9335    9356    9355    9775    9776    9797    9796
    2403      20    9335    9336    9357    9356    9776    9777    9798    9797
    2404      20    9336    9337    9358    9357    9777    9778    9799    9798
    2405      20    9337    9338    9359    9358    9778    9779    9800    9799
    2406      20    9338    9339    9360    9359    9779    9780    9801    9800
    2407      20    9339    9340    9361    9360    9780    9781    9802    9801
    2408      20    9340    9341    9362    9361    9781    9782    9803    9802
    2409      20    9341    9342    9363    9362    9782    9783    9804    9803
    2410      20    9342    9343    9364    9363    9783    9784    9805    9804
    2411      20    9343    9344    9365    9364    9784    9785    9806    9805
$ ... 7980 like lines cut
*ELEMENT_SHELL
$      1       1       9      10      45      28
$#   eid     pid      n1      n2      n3      n4
       1       1      10      45      28      28
       2       1      10      11      46      45
       3       1      11      12      47      46
       4       1      12      13      48      47
       5       1      13      14      49      48
       6       1      14      15      50      49
       7       1      15      16      51      50
$      8       1      16      17      37      51
       8       1      16      37      51      51
       9       1      28      45      52      29
      10       1      45      46      53      52
      11       1      46      47      54      53
      12       1      47      48      55      54
      13       1      48      49      56      55
      14       1      49      50      57      56
      15       1      50      51      58      57
      16       1      51      37      38      58
      17       1      29      52      59      30
      18       1      52      53      60      59
      19       1      53      54      61      60
      20       1      54      55      62      61
      21       1      55      56      63      62
      22       1      56      57      64      63
      23       1      57      58      65      64
      24       1      58      38      39      65
      25       5      30      59      66      31
      26       1      59      60      67      66
      27       1      60      61      68      67
$ ... 29 like lines cut
$     57       1      34      87      19      35
      57       1      34      87      19      19
      58       1      87      88      20      19
      59       1      88      89      21      20
      60       1      89      90      22      21
      61       1      90      91      23      22
      62       1      91      92      24      23
      63       1      92      93      25      24
$     64       1      93      43      44      25
      64       1      93      43      25      25
$     65       2       9      28     126      10
      65       2      28     126      10      10
      66       2      10     126     127      11
      67       2      11     127     128      12
      68       2      12     128     129      13
      69       2      13     129     130      14
      70       2      14     130     131      15
      71       2      15     131     132      16
$     72       2      16     132      37      17
      72       2      16     132      37      37
      73       2      28      29     133     126
      74       2     126     133     134     127
      75       2     127     134     135     128
      76       2     128     135     136     129
      77       2     129     136     137     130
      78       2     130     137     138     131
      79       2     131     138     139     132
      80       2     132     139      38      37
      81       2      29      30     140     133
      82       2     133     140     141     134
      83       2     134     141     142     135
      84       2     135     142     143     136
      85       2     136     143     144     137
      86       2     137     144     145     138
      87       2     138     145     146     139
      88       2     139     146      39      38
      89       2      30      31     147     140
      90       2     140     147     148     141
      91       2     141     148     149     142
$ ... 25 like lines cut
$    121       2      34      35      19     168
     121       2      34      19     168     168
     122       2     168      19      20     169
     123       2     169      20      21     170
     124       2     170      21      22     171
     125       2     171      22      23     172
     126       2     172      23      24     173
     127       2     173      24      25     174
$    128       2     174      25      44      43
     128       2     174      25      43      43
     321       3     204     144     143     209
     322       3     209     143     142     210
     323       3     142     149     222     210
     324       3     149     156     227     222
     325       3     227     156     157     233
     326       3     233     157     158     234
     327       3     144     204     254     151
     328       3     151     254     234     158
     329       3     210     222     272     209
     330       3     209     272     254     204
     331       3     222     227     233     272
     332       3     272     233     234     254
*NODE
$#   nid               x               y               z      tc      rc
       5      0.25000000     -0.25000000
       6     -0.25000000     -0.25000000
       7      0.25000000      0.25000000
       8     -0.25000000      0.25000000
       9     -0.25000000     -0.25000000   1.3877788e-17
      10     -0.18750000     -0.25000000
      11     -0.12500000     -0.25000000   6.9388939e-18
      12     -0.06250000     -0.25000000
      13           0.000     -0.25000000
      14      0.06250000     -0.25000000
      15      0.12500000     -0.25000000
      16      0.18750000     -0.25000000
      17      0.25000000     -0.25000000
      18     -0.25000000      0.25000000   1.3877788e-17
      19     -0.18750000      0.25000000
      20     -0.12500000      0.25000000   6.9388939e-18
      21     -0.06250000      0.25000000
      22           0.000      0.25000000
      23      0.06250000      0.25000000
      24      0.12500000      0.25000000
$ ... 9428 like lines cut
$
$Unrecognized cards 
$
$ added cvid to database_fsi - just cosmetic change for lsprepost
$ one more layer added to make sure the can does not leak at the bottom
$ point source nodes 4000 4001 4002 4003 4004 spc'd
$ moved nodes 4001 to 4003 from z=-0.01 to z=-0.03
$ node 9272 added and spc'd for just one point source
$ point source changed to 0.2e-4 each = total of 1.0e-4 = 10 x 10 mm total jet area
$ using only one point source at node 9272. 5 point sources require finer ale mesh
$ change point source temperature curve from 4 to 2
$ change point source velocity from 500 to 10.0
$ added a rigidwall to make sure the bottom part of bag does not go out of ale mesh
$ last point of massflow and temperature curve removed
$ last point for velocity curve changed to x=0.0784
*DEFINE_ALEBAG_BAG
$       ID       SID    SIDTYP     CVBAG    IBLOCK      VCOF      VSET      VTYP
       100         1         0       YES               
$    NQUAD     CTYPE     PFAC      FRIC    FRCMIN   NORMTYP     ILEAK     PLEAK
                         -321
$     NORM for pointing outward
         1
*DEFINE_ALEBAG_INFLATOR
$       ID     VTANK                          NGAS     NORIF     LCIDV       LCT
       100                                       1         1         3         2
$    LCIDM                         MWGAS                GASA      GASB      GASC
         1                        0.0249              29.680   0.00880
$   NODEID     VECID     ORIFA
      9272         11.0000e-04
*DEFINE_ALEBAG_HOLE
$   HOLEID      sid                nquad      xoff     ifold     xclen
       300        4         1          4     -0.02         1        3.
*DEFINE_ALEBAG_HOLE
$   HOLEID      sid                nquad      xoff     ifold     xclen
       310        5         1          4     -0.02         1        3.
*AIRBAG_ADVANCED_ALE
$     BAG1      BAG2
       100       
$    HOLE1     HOLE2
       300       310
$     INF1      INF2
       100
$     PAIR        NY        NZ                ARSN    IDCENT     ExSID    ExType
        20
$     ATMT      ATMP                  GC        CC      TANK       MWD      SPSF
      298.   101325.               8.314        1.
$   SwTime              HrGlas      NAir
                                       2
$#6 AIR                            MWAir     INITM      AirA      AirB      AirC
                                   0.028      0.80    27.296   0.00523
                                   0.032      0.20    25.723   0.01298
*END
