*KEYWORD
*DATABASE_HISTORY_NODE
        69
*TITLE
Simple airbag_ale problem with zoom and rotation                                
*CONTROL_ALE
$ FOR ALE
$      DCT      NADV      METH      AFAC      BFAC      CFAC      DFAC      EFAC
$#     dct      nadv      meth      afac      bfac      cfac      dfac      efac
         2         1         1 -1.000000     0.000     0.000     0.000     0.000
$    START       END     AAFAC     VFACT    VLIMIT       EBC     P_ref
$#   start       end     aafac     vfact      prit       ebc      pref   nsidebc
     0.000     0.000     0.000     0.000     0.000         0 1.0132E+5
*CONTROL_CONTACT
$#  slsfac    rwpnal    islchk    shlthk    penopt    thkchg     orien    enmass
  0.100000     0.000         0         0         0         0         2
$#  usrstr    usrfrc     nsbcs    interm     xpene     ssthk      ecdt   tiedprj
         0         0         0         0 2000.0000
$#   sfric     dfric       edc       vfc        th     th_sf    pen_sf
     0.000     0.000     0.000     0.000     0.000     0.000     0.000
$#  ignore    frceng   skiprwg    outseg   spotstp   spotdel
         0         0         0         0         0         0
*CONTROL_ENERGY
$#    hgen      rwen    slnten     rylen
         2
*CONTROL_STRUCTURED
*CONTROL_TERMINATION
$#  endtim    endcyc     dtmin    endeng    endmas
  0.100000         0     0.000     0.000     0.000
*CONTROL_TIMESTEP
$#  dtinit    tssfac      isdo    tslimt     dt2ms      lctm     erode     ms1st
     0.000  0.800000         0     0.000     0.000
$      1       1       9      10      45      28
$#  dt2msf   dt2mslc
     0.000
*DATABASE_ABSTAT
$#      dt    binary
 1.0000E-4
*DATABASE_NODOUT
$#      dt    binary
 1.0000E-4
*DATABASE_ELOUT
$#      dt    binary
 1.0000E-4
*DATABASE_GLSTAT
$#      dt    binary
 1.0000E-4
*DATABASE_MATSUM
$#      dt    binary
 1.0000E-4
*DATABASE_SLEOUT
$#      dt    binary
 1.0000E-4
*DATABASE_BINARY_D3PLOT
$     0.002         0         0         0
$#      dt      lcdt      beam     npltc
  0.001000
$#   ioopt
         0
*DATABASE_BINARY_RUNRSF
$#    cycl  not used  not used  not used
      1000
*DATABASE_HISTORY_SOLID
$#     id1       id2       id3       id4       id5       id6       id7       id8
      1163      1164      1263      1264
*DATABASE_FSI
$#      dt
 1.0000E-4
$#      id       sid     stype
         1         1
*PART
$# title
TOP                                                                             
$#     pid     secid       mid     eosid      hgid      grav    adpopt      tmid
         1         1         1
*SECTION_SHELL
$#   secid    elform      shrf       nip     propt   qr/irid     icomp     setyp
         1         0     0.000         0         0     0.000
$#      t1        t2        t3        t4      nloc     marea
 3.5000E-4 3.5000E-4 3.5000E-4 3.5000E-4         0     0.000
*MAT_FABRIC
$#     mid        ro        ea        eb        ec      prba      prca      prcb
         1 647.00000 2.8100E+8 2.8100E+8 2.8100E+8  0.300000  0.300000  0.300000
$#     gab       gbc       gca       cse        el       prl    lratio      damp
     0.000     0.000     0.000  1.000000     0.000     0.000  0.100000  0.050000
$#    aopt       flc       fac       ela      lnrc      form     fvopt    tsrfac
  3.000000     0.000  1.000000     0.000  1.000000         0     0.000     0.000
$#      xp        yp        zp        a1        a2        a3
     0.000     0.000     0.000     0.000     0.000     0.000
$#      v1        v2        v3        d1        d2        d3      beta
  1.000000  1.000000  1.000000     0.000     0.000     0.000     0.000
*PART
$# title
BOTTOM                                                                          
$#     pid     secid       mid     eosid      hgid      grav    adpopt      tmid
         2         1         1
*PART
$# title
CANISTER                                                                        
$#     pid     secid       mid     eosid      hgid      grav    adpopt      tmid
         3         1         1
*DEFINE_CURVE
$#    lcid      sidr       sfa       sfo      offa      offo    dattyp
         1         0  1.000000  1.000000     0.000     0.000
$#                a1                  o1
               0.000               0.000
       9.9999997e-05               0.000
       1.9999999e-04               0.000
       3.0000001e-04               0.000
       3.9999999e-04               0.000
       5.0000002e-04               0.000
       6.0000003e-04               0.000
       6.9999998e-04               0.000
       7.9999998e-04               0.000
       8.9999998e-04               0.000
          0.00100000               0.000
          0.00110000               0.000
          0.00120000               0.000
          0.00130000               0.000
          0.00140000               0.000
          0.00150000               0.000
          0.00160000               0.000
          0.00170000               0.000
          0.00180000               0.000
          0.00190000               0.000
$ ... 765 like lines cut
*DEFINE_CURVE
$#    lcid      sidr       sfa       sfo      offa      offo    dattyp
         2         0  1.000000  1.000000     0.000     0.000
$#                a1                  o1
               0.000        293.00000000
       9.9999997e-05        293.00000000
       1.9999999e-04        293.00000000
       3.0000001e-04        293.00000000
       3.9999999e-04        293.00000000
       5.0000002e-04        293.00000000
       6.0000003e-04        293.00000000
       6.9999998e-04        293.00000000
       7.9999998e-04        293.00000000
       8.9999998e-04        293.00000000
          0.00100000        293.00000000
          0.00110000        293.00000000
          0.00120000        293.00000000
          0.00130000        293.00000000
          0.00140000        293.00000000
          0.00150000        293.00000000
          0.00160000        293.00000000
          0.00170000        293.00000000
          0.00180000        293.00000000
          0.00190000        293.00000000
$ ... 765 like lines cut
*DEFINE_CURVE
$     LCID      SIDR       SFA       SFO      OFFA      OFFO    DATTYP
$#    lcid      sidr       sfa       sfo      offa      offo    dattyp
         3         0     0.000     0.000     0.000     0.000
$#                a1                  o1
               0.000         10.00000000
          0.07840000         10.00000000
*DEFINE_CURVE
$#    lcid      sidr       sfa       sfo      offa      offo    dattyp
         4         0  1.000000  1.000000     0.000     0.000
$#                a1                  o1
               0.000        630.00000000
          0.15000001        630.00000000
*DEFINE_CURVE
$ Per Lars : we should couple to only inflator gas for kg-m-s-K   - 07-30-02
$ bag penetration = 1 mm  <====>  P = 50000 pascal ==> 2 atm ==> 5 atm
$#    lcid      sidr       sfa       sfo      offa      offo    dattyp
       321         0     0.000     0.000     0.000     0.000
$#                a1                  o1
               0.000               0.000
          0.00100000       1.0000000e+05
*DEFINE_VECTOR
$#     vid        xt        yt        zt        xh        yh        zh
         1     0.000     0.000     0.000     0.000     0.000  0.100000
*AIRBAG_REFERENCE_GEOMETRY_RDT
$#   nid               x               y               z
       5      0.25000000     -0.25000000           0.000
$#   nid               x               y               z
       6     -0.25000000     -0.25000000           0.000
$#   nid               x               y               z
       7      0.25000000      0.25000000           0.000
$#   nid               x               y               z
       8     -0.25000000      0.25000000           0.000
$#   nid               x               y               z
       9     -0.25000000     -0.25000000   1.3877788e-17
$#   nid               x               y               z
      10     -0.18750000     -0.25000000           0.000
$#   nid               x               y               z
      11     -0.12500000     -0.25000000   6.9388939e-18
$#   nid               x               y               z
      12     -0.06250000     -0.25000000           0.000
$#   nid               x               y               z
      13           0.000     -0.25000000           0.000
$#   nid               x               y               z
      14      0.06250000     -0.25000000           0.000
$#   nid               x               y               z
      15      0.12500000     -0.25000000           0.000
$#   nid               x               y               z
      16      0.18750000     -0.25000000           0.000
$#   nid               x               y               z
      17      0.25000000     -0.25000000           0.000
$#   nid               x               y               z
      18     -0.25000000      0.25000000   1.3877788e-17
$#   nid               x               y               z
      19     -0.18750000      0.25000000           0.000
$#   nid               x               y               z
      20     -0.12500000      0.25000000   6.9388939e-18
$#   nid               x               y               z
      21     -0.06250000      0.25000000           0.000
$#   nid               x               y               z
      22           0.000      0.25000000           0.000
$#   nid               x               y               z
      23      0.06250000      0.25000000           0.000
$#   nid               x               y               z
      24      0.12500000      0.25000000           0.000
$ ... 332 like lines cut
*AIRBAG_ALE
$#     sid    sidtyp    unused    unused    unused    unused       mwd      spsf
         1         1         0         0         0         0     0.000     0.000
$#  atmost    atmosp    unused        gc        cc      tvol   tfpress
 298.00000 1.0132E+5         1  8.314000  1.000000     0.000     0.000
$#   nquad     ctype      pfac      fric    frcmin   normtyp     ileak     pleak
         4         4-321.00000     0.000     0.000         0         2     0.000
$#   ivset    ivtype    iblock      vcof
         0         0         0     0.000
$#nx/idair  ny/idgas        nz    movern      zoom
        20        19                 872         1
$#  swtime    unused        hg      nair      ngas     norif     lcvel       lct
   190.040         0 1.0000E-4         2         1         1         0         2
$    0.001         0 1.0000E-4         2         1         1         0         2
$#  unused    unused    unused     mwair     initm      aira      airb      airc
         0         0         0  0.028000  0.800000 27.296000  0.005230     0.000
         0         0         0  0.032000  0.200000 25.723000  0.012980     0.000
$#  lcmdot    unused    unused     mwgas    unused      gasa      gasb      gasc
         1         0         0  0.024900         0 29.680000  0.008800     0.000
$   NODEID    VECTID      AREA      NID1      NID2      NID3
$#  nodeid     vecid   orifare
      9272         1 1.0000E-4      9428      9432      9380 
*SET_PART_LIST
$#     sid       da1       da2       da3       da4
         1     0.000     0.000     0.000     0.000
$#    pid1      pid2      pid3      pid4      pid5      pid6      pid7      pid8
         1         2         3
*ELEMENT_SHELL
$      1       1       9      10      45      28
$#   eid     pid      n1      n2      n3      n4
       1       1      10      45      28      28
       2       1      10      11      46      45
       3       1      11      12      47      46
       4       1      12      13      48      47
       5       1      13      14      49      48
       6       1      14      15      50      49
       7       1      15      16      51      50
       8       1      16      37      51      51
       9       1      28      45      52      29
      10       1      45      46      53      52
      11       1      46      47      54      53
      12       1      47      48      55      54
      13       1      48      49      56      55
      14       1      49      50      57      56
      15       1      50      51      58      57
      16       1      51      37      38      58
      17       1      29      52      59      30
      18       1      52      53      60      59
      19       1      53      54      61      60
      20       1      54      55      62      61
$ ... 36 like lines cut
$     57       1      34      87      19      35
      57       1      34      87      19      19
      58       1      87      88      20      19
      59       1      88      89      21      20
      60       1      89      90      22      21
      61       1      90      91      23      22
      62       1      91      92      24      23
      63       1      92      93      25      24
$     64       1      93      43      44      25
      64       1      93      43      25      25
$     65       2       9      28     126      10
      65       2      28     126      10      10
      66       2      10     126     127      11
      67       2      11     127     128      12
      68       2      12     128     129      13
      69       2      13     129     130      14
      70       2      14     130     131      15
      71       2      15     131     132      16
$     72       2      16     132      37      17
      72       2      16     132      37      37
      73       2      28      29     133     126
      74       2     126     133     134     127
      75       2     127     134     135     128
      76       2     128     135     136     129
      77       2     129     136     137     130
      78       2     130     137     138     131
      79       2     131     138     139     132
      80       2     132     139      38      37
      81       2      29      30     140     133
      82       2     133     140     141     134
      83       2     134     141     142     135
      84       2     135     142     143     136
      85       2     136     143     144     137
      86       2     137     144     145     138
      87       2     138     145     146     139
      88       2     139     146      39      38
      89       2      30      31     147     140
      90       2     140     147     148     141
      91       2     141     148     149     142
$ ... 45 like lines cut
*NODE
$#   nid               x               y               z      tc      rc
       5      0.25000000     -0.25000000           0.000
       6     -0.25000000     -0.25000000           0.000
       7      0.25000000      0.25000000           0.000
       8     -0.25000000      0.25000000           0.000
       9     -0.25000000     -0.25000000   1.3877788e-17
      10     -0.18750000     -0.25000000           0.000
      11     -0.12500000     -0.25000000   6.9388939e-18
      12     -0.06250000     -0.25000000           0.000
      13           0.000     -0.25000000           0.000
      14      0.06250000     -0.25000000           0.000
      15      0.12500000     -0.25000000           0.000
      16      0.18750000     -0.25000000           0.000
      17      0.25000000     -0.25000000           0.000
      18     -0.25000000      0.25000000   1.3877788e-17
      19     -0.18750000      0.25000000           0.000
      20     -0.12500000      0.25000000   6.9388939e-18
      21     -0.06250000      0.25000000           0.000
      22           0.000      0.25000000           0.000
      23      0.06250000      0.25000000           0.000
      24      0.12500000      0.25000000           0.000
$ ... 172 like lines cut
*ELEMENT_SOLID
     945      20    1088    1097    1098    1089    1122    1125    1124    1123
     946      20    1087    1096    1097    1088    1126    1127    1125    1122
     947      20    1086    1095    1096    1087    1128    1129    1127    1126
     948      20    1025    1026    1095    1086    1130    1131    1129    1128
     949      20    1085    1094    1036    1035    1132    1135    1134    1133
     950      20    1084    1093    1094    1085    1136    1137    1135    1132
     951      20    1083    1092    1093    1084    1138    1139    1137    1136
     952      20    1082    1091    1092    1083    1140    1141    1139    1138
     953      20    1081    1090    1091    1082    1142    1143    1141    1140
     954      20    1080    1089    1090    1081    1144    1123    1143    1142
     955      20    1079    1088    1089    1080    1145    1122    1123    1144
     956      20    1078    1087    1088    1079    1146    1126    1122    1145
     957      20    1077    1086    1087    1078    1147    1128    1126    1146
     958      20    1024    1025    1086    1077    1148    1130    1128    1147
     959      20    1076    1085    1035    1034    1149    1132    1133    1150
     960      20    1075    1084    1085    1076    1151    1136    1132    1149
     961      20    1074    1083    1084    1075    1152    1138    1136    1151
     962      20    1073    1082    1083    1074    1153    1140    1138    1152
     963      20    1072    1081    1082    1073    1154    1142    1140    1153
     964      20    1071    1080    1081    1072    1155    1144    1142    1154
$ ... 1380 like lines cut
*NODE
     997  -3.0000001e-01  -3.0000001e-01  -9.9999998e-03
     998  -3.0000001e-01  -2.3999999e-01  -9.9999998e-03
     999  -3.0000001e-01  -1.8000001e-01  -9.9999998e-03
    1000  -3.0000001e-01  -1.2000000e-01  -9.9999998e-03
    1001  -3.0000001e-01  -5.9999999e-02  -9.9999998e-03
    1002  -3.0000001e-01   0.0000000e+00  -9.9999998e-03
    1003  -3.0000001e-01   5.9999999e-02  -9.9999998e-03
    1004  -3.0000001e-01   1.2000000e-01  -9.9999998e-03
    1005  -3.0000001e-01   1.8000001e-01  -9.9999998e-03
    1006  -3.0000001e-01   2.3999999e-01  -9.9999998e-03
    1007  -3.0000001e-01   3.0000001e-01  -9.9999998e-03
    1009   3.0000001e-01  -2.3999999e-01  -9.9999998e-03
    1010   3.0000001e-01  -1.8000001e-01  -9.9999998e-03
    1011   3.0000001e-01  -1.2000000e-01  -9.9999998e-03
    1012   3.0000001e-01  -5.9999999e-02  -9.9999998e-03
    1013   3.0000001e-01   0.0000000e+00  -9.9999998e-03
    1014   3.0000001e-01   5.9999999e-02  -9.9999998e-03
    1015   3.0000001e-01   1.2000000e-01  -9.9999998e-03
    1016   3.0000001e-01   1.8000001e-01  -9.9999998e-03
    1017   3.0000001e-01   2.3999999e-01  -9.9999998e-03
$ ... 1795 like lines cut
*ALE_REFERENCE_SYSTEM_NODE
$#      id
       872
$#    nid1      nid2      nid3      nid4      nid5      nid6      nid7      nid8
       272       254       233
$#    nid9     nid10     nid11     nid12
         0         0         0         0
*BOUNDARY_PRESCRIBED_MOTION_RIGID
$#     pid       dof       vad      lcid        sf       vid     death     birth
        22         6         2       929  1.000000         0       0.0       0.0
*DEFINE_CURVE
$#    lcid      sidr       sfa       sfo      offa      offo    dattyp
       929         0  1.000000  1.000000       0.0       0.0
$#                a1                  o1
                 0.0                 0.0
          0.15000001          0.50000000
$*CONSTRAINED_RIGID_BODIES
$$#    pidm      pids
$         4        22
*CONSTRAINED_EXTRA_NODES_SET
$#     pid      nsid
        22         3
*SET_NODE_LIST_TITLE
extra
$#     sid       da1       da2       da3       da4
         3       0.0       0.0       0.0       0.0
$#    nid1      nid2      nid3      nid4      nid5      nid6      nid7      nid8
       142       143       144       149       151       156       157       158
       204       209       210       222       227       233       234       254
       272      9272
*ELEMENT_SHELL
    2392      22    9328    9329    9341    9340
    2393      22    9329    9330    9342    9341
    2394      22    9330    9331    9343    9342
    2395      22    9331    9332    9344    9343
    2396      22    9332    9333    9345    9344
    2397      22    9333    9334    9346    9345
    2398      22    9334    9335    9347    9346
    2399      22    9335    9336    9348    9347
    2400      22    9336    9337    9349    9348
    2401      22    9337    9338    9350    9349
    2402      22    9338    9339    9351    9350
    2403      22    9340    9341    9353    9352
    2404      22    9341    9342    9354    9353
    2405      22    9342    9343    9355    9354
    2406      22    9343    9344    9356    9355
    2407      22    9344    9345    9357    9356
    2408      22    9345    9346    9358    9357
    2409      22    9346    9347    9359    9358
    2410      22    9347    9348    9360    9359
    2411      22    9348    9349    9361    9360
$ ... 101 like lines cut
*NODE
    9328     -0.31800002     -0.31800002     -0.00600000
    9329     -0.31799999     -0.26018181     -0.00600000
    9330     -0.31800002     -0.20236365     -0.00600000
    9331     -0.31800002     -0.14454547     -0.00600000
    9332     -0.31800002     -0.08672727     -0.00600000
    9333     -0.31800002     -0.02890907     -0.00600000
    9334     -0.31800002      0.02890911     -0.00600000
    9335     -0.31800002      0.08672728     -0.00600000
    9336     -0.31800002      0.14454548     -0.00600000
    9337     -0.31800002      0.20236367     -0.00600000
    9338     -0.31800002      0.26018184     -0.00600000
    9339     -0.31800002      0.31800002     -0.00600000
    9340     -0.26018181     -0.31799999     -0.00600000
    9341     -0.26018181     -0.26018184     -0.00600000
    9342     -0.26018181     -0.20236363     -0.00600000
    9343     -0.26018184     -0.14454547     -0.00600000
    9344     -0.26018184     -0.08672727     -0.00600000
    9345     -0.26018181     -0.02890906     -0.00600000
    9346     -0.26018181      0.02890909     -0.00600000
    9347     -0.26018181      0.08672728     -0.00600000
$ ... 124 like lines cut
*PART
$# title
DASHPANEL                                                                       
$#     pid     secid       mid     eosid      hgid      grav    adpopt      tmid
        22        22        22
*SECTION_SHELL
$#   secid    elform      shrf       nip     propt   qr/irid     icomp     setyp
        22         0     0.000         0         0     0.000
$#      t1        t2        t3        t4      nloc     marea
 3.5000E-4 3.5000E-4 3.5000E-4 3.5000E-4         0     0.000
*MAT_RIGID
$#     mid        ro         e        pr         n    couple         m     alias
        22 647.00000 2.8100E+8     0.000     0.000     0.000     0.000          
$#     cmo      con1      con2
         1     7.000     6.000
$#lco or a1       a2        a3        v1        v2        v3
     0.000     0.000     0.000     0.000     0.000     0.000
*CONTACT_AIRBAG_SINGLE_SURFACE
$#     cid                                                                 title
$     SSID      MSID     SSTYP     MSTYP    SBOXID    MBOXID       SPR       MPR
$#    ssid      msid     sstyp     mstyp    sboxid    mboxid       spr       mpr
        33         0         2
$       FS        FD        DC        VC       VDC    PENCHK        BT        DT
$#      fs        fd        dc        vc       vdc    penchk        bt        dt
  0.100000       0.0       0.0       0.0       0.0         0       0.0       0.0
$      SFS       SFM       SST       MST      SFST      SFMT       FSF       VSF
$#     sfs       sfm       sst       mst      sfst      sfmt       fsf       vsf
       0.0       0.0       0.0       0.0       0.0       0.0       0.0       0.0
$     SOFT    SOFSCL    LCIDAB    MAXPAR      EDGE     DEPTH     BSORT    FRCFRQ
$#    soft    sofscl    lcidab    maxpar     sbopt     depth     bsort    frcfrq
         2       0.0         0       0.0       0.0
*SET_PART_LIST
$#     sid       da1       da2       da3       da4
        33       0.0       0.0       0.0       0.0
$#    pid1      pid2      pid3      pid4      pid5      pid6      pid7      pid8
         1         2        22
*END
