*KEYWORD 
*TITLE
g-cm-mcrs-K; SALE-LOAD_BLAST coupling
$===============================================================================
$ Model Summary:
$ currently set up for Lagrangian blast loading uncommenting a few things 
$ renders a ALE simualtion. 1 kg charge situated at the origin
$ H1 = AMMG1 = air
$ H2 = AMMG1 = ambient air layer
$ H3 = AMMG2 = VACUUM
$ Shell: 201917 , 202891 , 201146 , 200792 ;
$ solid: 145231 , 145228 ,  83019 , 140044
$===============================================================================
$ [ ] EXECUTION CONTROLS
$===============================================================================
*CONTROL_TERMINATION
$   endtim    endcyc     dtmin    endeng    endmas
     700.0
*CONTROL_TIMESTEP
$   dtinit    tssfac      isdo    tslimt     dt2ms      lctm     erode     ms1st
     0.000  0.500000                                       0
$   dt2msf   dt2mslc     imscl
     0.000         0         0
$===============================================================================
$ [ ] OUTPUT CONTROLS
$===============================================================================
*DATABASE_BINARY_BLSTFOR
$       dt      lcdt      beam     npltc
       1.0                           100
*DATABASE_BINARY_D3PLOT
$       dt      lcdt      beam     npltc
       1.0                           100
$    ioopt
         0
$===============================================================================
$ [ ] EULERIAN & ALE & COUPLING CONSTRAINTS, ...
$ SSTYP = SLAVE  elm type: 0=PSID=part-set-id;  1=PID=part-id; 2=segm-set-id
$===============================================================================
*CONTROL_ALE
$      dct      nadv      meth      afac      bfac      cfac      dfac      efac
         0         1         2 -1.000000
$    start       end     aafac     vfact      prit       ebc      pref   nsidebc
     0.000     0.000     0.000     0.000     0.000         0  1.030e-6         0
*ALE_STRUCTURED_MESH
$    mshid       pid      nbid      ebid
         1      1001    300001    300001
$     nptx      npty      nptz      nid0     lcsid
      1001      1002      1002
*ALE_STRUCTURED_MESH_CONTROL_POINTS
      1001
$                 i1                  x2
                   1              70.000
                 101      97.77778625488
*ALE_STRUCTURED_MESH_CONTROL_POINTS
      1002
$                 i1                  x2
                   1                -5.0
                  37                 5.0
*SET_NODE_GENERAL
$      SID
      2001
$   OPTION     MSHID       XMN       XMX       YMN       YMX       ZMN       ZMX
   SALEFAC         1                             1         1         1         1
*SET_SEGMENT_GENERAL
$      SID
      3001
$   OPTION     MSHID       XMN       XMX       YMN       YMX       ZMN       ZMX
   SALEFAC         1         1
*SET_SOLID_GENERAL
$      SID
      4001
$   OPTION     MSHID       XMN       XMX       YMN       YMX       ZMN       ZMX
   SALEFAC         1         1
*SET_SOLID_GENERAL
$      SID
      4002
$   OPTION     MSHID       XMN       XMX       YMN       YMX       ZMN       ZMX
   SALEFAC         1                   1
$-------------------------------------------------------------------------------
*ALE_MULTI-MATERIAL_GROUP
$      sid    idtype
         1         1
$===============================================================================
$ [ ] BC's + IC's + BODY LOADS + FORCE FIELDS
$===============================================================================
*DEFINE_CURVE
$     lcid      sidr       sfa       sfo      offa      offo    dattyp
        88
$                 a1                  o1
               0.000           1.0000e-5
        10000.000000           1.0000e-5
$-------------------------------------------------------------------------------
*LOAD_BLAST_ENHANCED
$      bid         m       xbo       ybo       zbo       tbo      unit     blast
         1    1000.0     0.000     0.000     0.000    -270.0         4         2
$      cfm       cfl       cft       cfp     NIDBO     DEATH
     0.000     0.000     0.000     0.000
*BOUNDARY_AMBIENT
$     ssid      ammg    ambtyp  
      4001         1         5
$    lcid1     lcid2

$-------------------------------------------------------------------------------
*LOAD_BLAST_SEGMENT_SET
$      BID     SGSID    ALEPID
         1      3001      1001
$-------------------------------------------------------------------------------
*LOAD_BLAST_ENHANCED
$      bid         m       xbo       ybo       zbo       tbo      unit     blast
         2    1000.0     0.000     0.000     0.000    -270.0         4         2
$      cfm       cfl       cft       cfp     NIDBO     DEATH
     0.000     0.000     0.000     0.000
$-------------------------------------------------------------------------------
*LOAD_BLAST_SEGMENT_SET
$      BID     SGSID    ALEPID
         2         5         0
$-------------------------------------------------------------------------------
*BOUNDARY_SPC_SET
$     nsid       cid      dofx      dofy      dofz     dofrx     dofry     dofrz
      2001         0         0         1         1
         5         0         1         1         1
$===============================================================================
$ [ ] |PART_ID|SECTION_ID|MAT_ID|EOS_ID|HG_ID|GRAV|ADPOPT|THERM_MID| DEFINITIONS
$===============================================================================
*PART
S10 = rigid Lagr. shell blade
$      pid     secid       mid     eosid      hgid      grav    adpopt      tmid
        10        10        10
*SECTION_SHELL
$    secid    elform      shrf       nip     propt   qr/irid     icomp     setyp
        10         0
$       t1        t2        t3        t4      nloc     marea
      0.04      0.04      0.04      0.04
*MAT_ELASTIC
$      mid        ro         e        pr         n    couple         m     alias
        10 7830.0E-3  200.0E-2       0.3
*MAT_RIGID
$      mid        ro         e        pr         n    couple         m     alias
        11 7830.0E-3  200.0E-2       0.3
$      cmo      con1      con2
         1         7         7
$ lco or a1       a2        a3        v1        v2        v3

$===============================================================================
*PART
H1 = AMMG1 = air
$      pid     secid       mid     eosid      hgid      grav    adpopt      tmid
         1         1         1         1         1
*SECTION_SOLID
$    secid    elform       aet
         1        11
*MAT_NULL
$      mid        ro        pc        mu     terod     cerod        ym        pr
         1  0.001225 -1.000E+5
*EOS_LINEAR_POLYNOMIAL
$    eosid        c0        c1        c2        c3        c4        c5        c6
         1     0.000     0.000     0.000     0.000  0.400000  0.400000
$       e0        v0
 2.5750E-6  1.000000
*HOURGLASS
$     HGID       IHQ        QM       IBQ        Q1        Q2        QB        QW
         1         1    1.0E-9
$===============================================================================
$ [ ] ELEMENTAL GEOMETRIC DEFINITIONS ~ MESH,ELM,NODES + NODAL CONSTRAINTS
$===============================================================================
*ELEMENT_SHELL
  200001      10  200585  202230  202232  202231
  200002      10  202230  200585  202237  202238
  200003      10  200003  203650  203651  203648
  200004      10  203648  203657  203655  200003
  200005      10  200795  203043  203047  203045
  200006      10  201170  200037  201176  201177
  200007      10  201015  200275  203670  203671
  200008      10  202148  202155  202151  200563
  200009      10  202709  200177  202710  202711
  200010      10  200177  202709  202818  202816
  200011      10  200380  201526  201534  201425
  200012      10  201170  200314  201167  201171
  200013      10  203212  203219  203215  200834
  200014      10  201940  200107  201946  201947
  200015      10  200651  202590  202598  202489
  200016      10  202234  200585  202231  202235
  200017      10  200401  201508  201510  201509
  200018      10  201508  200401  201515  201516
  200019      10  200672  202572  202574  202573
  200020      10  202572  200672  202579  202580
$ ... 3580 like lines cut
*NODE
  200001  7.0000000e+001  0.0000000e+000 -5.0000000e+000
  200002  7.0000000e+001  0.0000000e+000 -3.8888891e+000
  200003  7.0000000e+001  0.0000000e+000 -2.7777777e+000
  200004  7.0000000e+001  0.0000000e+000 -1.6666670e+000
  200005  7.0000000e+001  0.0000000e+000 -5.5555582e-001
  200006  7.0000000e+001  0.0000000e+000  5.5555528e-001
  200007  7.0000000e+001  0.0000000e+000  1.6666663e+000
  200008  7.0000000e+001  0.0000000e+000  2.7777777e+000
  200009  7.0000000e+001  0.0000000e+000  3.8888884e+000
  200010  7.0000000e+001  0.0000000e+000  5.0000000e+000
  200011  7.1111115e+001  0.0000000e+000 -5.0000000e+000
  200012  7.1111115e+001 -4.7683716e-007 -3.8888891e+000
  200013  7.1111107e+001  0.0000000e+000 -2.7777779e+000
  200014  7.1111107e+001  4.7683716e-007 -1.6666670e+000
  200015  7.1111115e+001  0.0000000e+000 -5.5555582e-001
  200016  7.1111115e+001  0.0000000e+000  5.5555528e-001
  200017  7.1111107e+001  4.7683716e-007  1.6666663e+000
  200018  7.1111115e+001 -4.7683716e-007  2.7777777e+000
  200019  7.1111107e+001  0.0000000e+000  3.8888886e+000
  200020  7.1111115e+001  0.0000000e+000  5.0000000e+000
$ ... 3717 like lines cut
$-------------------------------------------------------------------------------
*SET_SEGMENT
$      sid       da1       da2       da3       da4
         5
$       n1        n2        n3        n4        a1        a2        a3        a4
    200524    202089    202098    201989
    200784    203012    203014    203013
    203012    200784    203019    203020
    201223    200332    201222    201224
    200589    202346    202354    202245
    200332    201229    201230    201222
    200849    203268    203270    203269
    203268    200849    203275    203276
    201479    200397    201478    201480
    200654    202602    202610    202501
    200397    201485    201486    201478
    202759    200182    202760    202761
    200182    202759    202868    202866
    203015    200205    203016    203017
    200205    203015    203124    203122
    201735    200462    201734    201736
    200462    201741    201742    201734
    202760    200719    202757    202761
    203271    200228    203272    203273
    200228    203271    203380    203378
$ ... 3580 like lines cut
$-------------------------------------------------------------------------------
*SET_NODE_LIST
$#     sid       da1       da2       da3       da4
         5
$#    nid1      nid2      nid3      nid4      nid5      nid6      nid7      nid8
    200466    201762    200091    201868    200494    201872    200101    201978
    200522    201982    200111    202088    200550    202092    200121    202198
    200578    202202    200131    202308    200606    202312    200141    202418
    200634    202422    200151    202528    200662    202532    200161    202638
    200690    202642    200171    202748    200718    202752    200181    202858
    200746    202862    200191    202968    200774    202972    200201    203078
    200802    203082    200211    203188    200830    203192    200221    203298
    200858    203302    200231    203408    200886    203412    200241    203518
    200914    203522    200251    201758    200081    201652    200438    201648
    200071    201542    200410    201538    200061    201432    200382    201428
    200051    201322    200354    201318    200041    201212    200326    201208
    200031    201102    200298    201098    200021    200975    200261    200970
    200011    203633    200942    203628    200001    203548    200922    203553
    200254    203560    200925    203565    200255    203572    200928    203577
    200256    203584    200931    203589    200257    203596    200934    203601
    200258    203608    200937    203613    200259    203620    200940    203625
    200260    200253    203541    200919    203536    200252    203529    200916
    203524    200715    202742    200170    202636    200687    202632    200160
    202526    200659    202522    200150    202416    200631    202412    200140
    202306    200603    202302    200130    202196    200575    202192    200120
$ ... 14 like lines cut
$-------------------------------------------------------------------------------
*END
$-------------------------------------------------------------------------------






